<?xml version="1.0" encoding="UTF-8"?>

<!-- generated on 2025-08-27 07:17:52 by Eclipse SUMO netconvert Version 1.15.0
<configuration xmlns:xsi="http://www.w3.org/2001/XMLSchema-instance" xsi:noNamespaceSchemaLocation="http://sumo.dlr.de/xsd/netconvertConfiguration.xsd">

    <input>
        <osm-files value="edsa_aurora.osm"/>
    </input>

    <output>
        <output-file value="edsa_aurora.net.xml"/>
    </output>

    <projection>
        <proj.utm value="true"/>
    </projection>

</configuration>
-->

<net version="1.9" junctionCornerDetail="5" limitTurnSpeed="5.50" xmlns:xsi="http://www.w3.org/2001/XMLSchema-instance" xsi:noNamespaceSchemaLocation="http://sumo.dlr.de/xsd/net_file.xsd">

    <location netOffset="-289638.88,-1617155.89" convBoundary="0.00,0.00,561.49,506.88" origBoundary="121.047024,14.619612,121.052218,14.624177" projParameter="+proj=utm +zone=51 +ellps=WGS84 +datum=WGS84 +units=m +no_defs"/>

    <type id="highway.bridleway" priority="1" numLanes="1" speed="2.78" allow="pedestrian" oneway="1" width="2.00"/>
    <type id="highway.bus_guideway" priority="1" numLanes="1" speed="27.78" allow="bus" oneway="1"/>
    <type id="highway.cycleway" priority="1" numLanes="1" speed="5.56" allow="bicycle" oneway="0" width="1.00"/>
    <type id="highway.footway" priority="1" numLanes="1" speed="2.78" allow="pedestrian" oneway="1" width="2.00"/>
    <type id="highway.ford" priority="1" numLanes="1" speed="2.78" allow="army" oneway="0"/>
    <type id="highway.living_street" priority="2" numLanes="1" speed="2.78" disallow="tram rail_urban rail rail_electric rail_fast ship" oneway="0"/>
    <type id="highway.motorway" priority="14" numLanes="2" speed="39.44" allow="private emergency authority army vip passenger hov taxi bus coach delivery truck trailer motorcycle evehicle custom1 custom2" oneway="1"/>
    <type id="highway.motorway_link" priority="9" numLanes="1" speed="22.22" allow="private emergency authority army vip passenger hov taxi bus coach delivery truck trailer motorcycle evehicle custom1 custom2" oneway="1"/>
    <type id="highway.path" priority="1" numLanes="1" speed="5.56" allow="pedestrian bicycle" oneway="0" width="2.00"/>
    <type id="highway.pedestrian" priority="1" numLanes="1" speed="2.78" allow="pedestrian" oneway="1" width="2.00"/>
    <type id="highway.primary" priority="12" numLanes="2" speed="27.78" disallow="tram rail_urban rail rail_electric rail_fast ship" oneway="0"/>
    <type id="highway.primary_link" priority="7" numLanes="1" speed="22.22" disallow="tram rail_urban rail rail_electric rail_fast ship" oneway="0"/>
    <type id="highway.raceway" priority="15" numLanes="2" speed="83.33" allow="vip" oneway="0"/>
    <type id="highway.residential" priority="3" numLanes="1" speed="13.89" disallow="tram rail_urban rail rail_electric rail_fast ship" oneway="0"/>
    <type id="highway.secondary" priority="11" numLanes="1" speed="27.78" disallow="tram rail_urban rail rail_electric rail_fast ship" oneway="0"/>
    <type id="highway.secondary_link" priority="6" numLanes="1" speed="22.22" disallow="tram rail_urban rail rail_electric rail_fast ship" oneway="0"/>
    <type id="highway.service" priority="1" numLanes="1" speed="5.56" allow="pedestrian delivery bicycle" oneway="0"/>
    <type id="highway.stairs" priority="1" numLanes="1" speed="1.39" allow="pedestrian" oneway="1" width="2.00"/>
    <type id="highway.step" priority="1" numLanes="1" speed="1.39" allow="pedestrian" oneway="1" width="2.00"/>
    <type id="highway.steps" priority="1" numLanes="1" speed="1.39" allow="pedestrian" oneway="1" width="2.00"/>
    <type id="highway.tertiary" priority="10" numLanes="1" speed="22.22" disallow="tram rail_urban rail rail_electric rail_fast ship" oneway="0"/>
    <type id="highway.tertiary_link" priority="5" numLanes="1" speed="22.22" disallow="tram rail_urban rail rail_electric rail_fast ship" oneway="0"/>
    <type id="highway.track" priority="1" numLanes="1" speed="5.56" allow="pedestrian motorcycle moped bicycle" oneway="0"/>
    <type id="highway.trunk" priority="13" numLanes="2" speed="27.78" disallow="pedestrian bicycle tram rail_urban rail rail_electric rail_fast ship" oneway="0"/>
    <type id="highway.trunk_link" priority="8" numLanes="1" speed="22.22" disallow="pedestrian bicycle tram rail_urban rail rail_electric rail_fast ship" oneway="0"/>
    <type id="highway.unclassified" priority="4" numLanes="1" speed="13.89" disallow="tram rail_urban rail rail_electric rail_fast ship" oneway="0"/>
    <type id="highway.unsurfaced" priority="1" numLanes="1" speed="8.33" disallow="tram rail_urban rail rail_electric rail_fast ship" oneway="0"/>
    <type id="railway.highspeed" priority="21" numLanes="1" speed="69.44" allow="rail_fast" oneway="1"/>
    <type id="railway.light_rail" priority="19" numLanes="1" speed="27.78" allow="rail_urban" oneway="1"/>
    <type id="railway.preserved" priority="16" numLanes="1" speed="27.78" allow="rail" oneway="1"/>
    <type id="railway.rail" priority="20" numLanes="1" speed="44.44" allow="rail" oneway="1"/>
    <type id="railway.subway" priority="18" numLanes="1" speed="27.78" allow="rail_urban" oneway="1"/>
    <type id="railway.tram" priority="17" numLanes="1" speed="13.89" allow="tram" oneway="1"/>

    <edge id=":11486577618_0" function="internal">
        <lane id=":11486577618_0_0" index="0" disallow="tram rail_urban rail rail_electric rail_fast ship" speed="7.63" length="5.39" shape="354.87,219.09 355.88,218.95 357.28,218.25 358.68,217.40 359.69,216.82"/>
    </edge>
    <edge id=":11486577618_1" function="internal">
        <lane id=":11486577618_1_0" index="0" disallow="tram rail_urban rail rail_electric rail_fast ship" speed="16.67" length="5.28" shape="354.87,219.09 359.74,221.12"/>
        <lane id=":11486577618_1_1" index="1" disallow="tram rail_urban rail rail_electric rail_fast ship" speed="16.67" length="5.28" shape="353.64,222.04 358.51,224.08"/>
    </edge>
    <edge id=":11565759429_0" function="internal">
        <lane id=":11565759429_0_0" index="0" allow="pedestrian delivery bicycle" speed="5.56" length="4.73" shape="230.65,149.50 229.29,154.04"/>
    </edge>
    <edge id=":11565759429_1" function="internal">
        <lane id=":11565759429_1_0" index="0" allow="pedestrian delivery bicycle" speed="3.65" length="1.44" shape="230.65,149.50 229.54,150.43"/>
    </edge>
    <edge id=":11565759429_4" function="internal">
        <lane id=":11565759429_4_0" index="0" allow="pedestrian delivery bicycle" speed="3.65" length="3.23" shape="229.54,150.43 228.66,150.58 228.00,149.97 227.58,148.59"/>
    </edge>
    <edge id=":11565759429_2" function="internal">
        <lane id=":11565759429_2_0" index="0" allow="pedestrian delivery bicycle" speed="5.56" length="4.73" shape="226.23,153.12 227.58,148.59"/>
    </edge>
    <edge id=":11565759429_3" function="internal">
        <lane id=":11565759429_3_0" index="0" allow="pedestrian delivery bicycle" speed="3.65" length="1.44" shape="226.23,153.12 227.34,152.20"/>
    </edge>
    <edge id=":11565759429_5" function="internal">
        <lane id=":11565759429_5_0" index="0" allow="pedestrian delivery bicycle" speed="3.65" length="3.23" shape="227.34,152.20 228.22,152.05 228.87,152.66 229.29,154.04"/>
    </edge>
    <edge id=":11565759430_0" function="internal">
        <lane id=":11565759430_0_0" index="0" allow="pedestrian delivery bicycle" speed="3.65" length="4.67" shape="239.80,105.63 240.88,104.67 241.76,104.49 242.43,105.08 242.89,106.45"/>
    </edge>
    <edge id=":12029548770_0" function="internal">
        <lane id=":12029548770_0_0" index="0" disallow="pedestrian tram rail_urban rail rail_electric rail_fast ship" speed="5.49" length="6.28" shape="239.82,166.17 239.82,167.01 240.58,167.92 242.08,168.89 244.32,169.93"/>
    </edge>
    <edge id=":12029548770_1" function="internal">
        <lane id=":12029548770_1_0" index="0" disallow="tram rail_urban rail rail_electric rail_fast ship" speed="3.65" length="4.67" shape="239.82,166.17 238.59,166.94 237.70,166.97 237.13,166.28 236.90,164.86"/>
    </edge>
    <edge id=":12029548770_2" function="internal">
        <lane id=":12029548770_2_0" index="0" disallow="pedestrian tram rail_urban rail rail_electric rail_fast ship" speed="5.63" length="6.33" shape="230.99,164.48 233.28,165.29 235.03,165.62 236.24,165.48 236.90,164.86"/>
    </edge>
    <edge id=":12029548770_3" function="internal">
        <lane id=":12029548770_3_0" index="0" disallow="pedestrian tram rail_urban rail rail_electric rail_fast ship" speed="27.78" length="14.41" shape="230.99,164.48 244.32,169.93"/>
        <lane id=":12029548770_3_1" index="1" disallow="pedestrian tram rail_urban rail rail_electric rail_fast ship" speed="27.78" length="14.41" shape="229.78,167.44 243.11,172.89"/>
    </edge>
    <edge id=":12029548771_0" function="internal">
        <lane id=":12029548771_0_0" index="0" disallow="tram rail_urban rail rail_electric rail_fast ship" speed="16.67" length="9.41" shape="234.90,161.17 243.66,164.60"/>
        <lane id=":12029548771_0_1" index="1" disallow="tram rail_urban rail rail_electric rail_fast ship" speed="16.67" length="9.41" shape="233.73,164.15 242.49,167.58"/>
    </edge>
    <edge id=":12029548771_2" function="internal">
        <lane id=":12029548771_2_0" index="0" disallow="tram rail_urban rail rail_electric rail_fast ship" speed="5.52" length="6.43" shape="233.73,164.15 239.90,165.99"/>
    </edge>
    <edge id=":12029548771_3" function="internal">
        <lane id=":12029548771_3_0" index="0" disallow="tram rail_urban rail rail_electric rail_fast ship" speed="5.62" length="6.23" shape="236.98,164.67 242.49,167.58"/>
    </edge>
    <edge id=":12029548771_4" function="internal">
        <lane id=":12029548771_4_0" index="0" disallow="tram rail_urban rail rail_electric rail_fast ship" speed="3.65" length="4.67" shape="236.98,164.67 238.20,163.91 239.09,163.87 239.66,164.56 239.90,165.99"/>
    </edge>
    <edge id=":12606354248_0" function="internal">
        <lane id=":12606354248_0_0" index="0" disallow="tram rail_urban rail rail_electric rail_fast ship" speed="13.57" length="16.06" shape="323.81,187.11 327.02,185.54 329.85,183.51 332.40,180.50 334.77,176.03"/>
    </edge>
    <edge id=":12606354248_1" function="internal">
        <lane id=":12606354248_1_0" index="0" disallow="tram rail_urban rail rail_electric rail_fast ship" speed="16.67" length="15.84" shape="328.52,190.59 334.77,176.03"/>
        <lane id=":12606354248_1_1" index="1" disallow="tram rail_urban rail rail_electric rail_fast ship" speed="16.67" length="15.84" shape="331.46,191.85 337.71,177.29"/>
    </edge>
    <edge id=":12606354254_0" function="internal">
        <lane id=":12606354254_0_0" index="0" disallow="tram rail_urban rail rail_electric rail_fast ship" speed="19.44" length="16.15" shape="294.62,186.62 299.35,188.57 303.24,189.30 306.75,189.37 310.32,189.36"/>
    </edge>
    <edge id=":12606354254_1" function="internal">
        <lane id=":12606354254_1_0" index="0" disallow="tram rail_urban rail rail_electric rail_fast ship" speed="16.67" length="16.10" shape="294.62,186.62 308.90,194.06"/>
        <lane id=":12606354254_1_1" index="1" disallow="tram rail_urban rail rail_electric rail_fast ship" speed="16.67" length="16.10" shape="293.14,189.46 307.42,196.90"/>
        <lane id=":12606354254_1_2" index="2" disallow="tram rail_urban rail rail_electric rail_fast ship" speed="16.67" length="16.10" shape="291.67,192.30 305.94,199.74"/>
        <lane id=":12606354254_1_3" index="3" disallow="tram rail_urban rail rail_electric rail_fast ship" speed="16.67" length="16.10" shape="290.19,195.14 304.46,202.58"/>
    </edge>
    <edge id=":2370264844_0" function="internal">
        <lane id=":2370264844_0_0" index="0" disallow="tram rail_urban rail rail_electric rail_fast ship" speed="16.67" length="12.97" shape="360.04,199.69 354.67,211.61"/>
        <lane id=":2370264844_0_1" index="1" disallow="tram rail_urban rail rail_electric rail_fast ship" speed="16.67" length="12.97" shape="357.05,198.54 351.77,210.27"/>
    </edge>
    <edge id=":2370264844_2" function="internal">
        <lane id=":2370264844_2_0" index="0" disallow="pedestrian tram rail_urban rail rail_electric rail_fast ship" speed="8.75" length="13.48" shape="357.05,198.54 355.30,201.90 353.01,204.21 350.20,205.48 346.85,205.69"/>
    </edge>
    <edge id=":2370264845_0" function="internal">
        <lane id=":2370264845_0_0" index="0" disallow="pedestrian tram rail_urban rail rail_electric rail_fast ship" speed="8.06" length="6.46" shape="332.67,198.21 331.81,196.19 331.31,194.49 331.17,193.10 331.38,192.03"/>
    </edge>
    <edge id=":2370264845_1" function="internal">
        <lane id=":2370264845_1_0" index="0" disallow="tram rail_urban rail rail_electric rail_fast ship" speed="16.67" length="6.38" shape="325.46,196.27 328.44,190.77"/>
        <lane id=":2370264845_1_1" index="1" disallow="tram rail_urban rail rail_electric rail_fast ship" speed="16.67" length="6.38" shape="328.29,197.76 331.38,192.03"/>
    </edge>
    <edge id=":255063132_0" function="internal">
        <lane id=":255063132_0_0" index="0" allow="pedestrian delivery bicycle" speed="5.56" length="0.11" shape="230.67,149.42 230.70,149.31"/>
    </edge>
    <edge id=":255063132_1" function="internal">
        <lane id=":255063132_1_0" index="0" allow="pedestrian delivery bicycle" speed="5.56" length="0.10" shape="227.64,148.40 227.61,148.50"/>
    </edge>
    <edge id=":29523876_0" function="internal">
        <lane id=":29523876_0_0" index="0" disallow="pedestrian tram rail_urban rail rail_electric rail_fast ship" speed="16.67" length="15.07" shape="323.00,222.15 319.24,219.85 317.05,217.62 314.85,215.42 311.06,213.17"/>
        <lane id=":29523876_0_1" index="1" disallow="pedestrian tram rail_urban rail rail_electric rail_fast ship" speed="16.67" length="15.07" shape="324.35,219.25 320.58,216.94 318.38,214.72 316.18,212.51 312.38,210.25"/>
    </edge>
    <edge id=":29523876_2" function="internal">
        <lane id=":29523876_2_0" index="0" disallow="tram rail_urban rail rail_electric rail_fast ship" speed="6.05" length="7.93" shape="311.70,225.12 312.22,223.32 311.84,221.70 310.58,220.26 308.44,219.01"/>
        <lane id=":29523876_2_1" index="1" disallow="tram rail_urban rail rail_electric rail_fast ship" speed="6.89" length="10.60" shape="311.70,225.12 312.84,222.06 312.89,219.54 311.86,217.55 309.75,216.09"/>
    </edge>
    <edge id=":29523876_4" function="internal">
        <lane id=":29523876_4_0" index="0" disallow="pedestrian tram rail_urban rail rail_electric rail_fast ship" speed="16.67" length="15.37" shape="311.70,225.12 318.16,211.30"/>
        <lane id=":29523876_4_1" index="1" disallow="pedestrian tram rail_urban rail rail_electric rail_fast ship" speed="16.67" length="15.37" shape="314.56,226.56 321.12,212.53"/>
    </edge>
    <edge id=":32519283_0" function="internal">
        <lane id=":32519283_0_0" index="0" disallow="tram rail_urban rail rail_electric rail_fast ship" speed="22.22" length="3.40" shape="267.43,200.55 270.21,198.59"/>
        <lane id=":32519283_0_1" index="1" disallow="tram rail_urban rail rail_electric rail_fast ship" speed="22.22" length="3.00" shape="268.68,197.61 270.74,195.43"/>
    </edge>
    <edge id=":32519283_2" function="internal">
        <lane id=":32519283_2_0" index="0" disallow="tram rail_urban rail rail_electric rail_fast ship" speed="16.67" length="3.43" shape="269.92,194.66 270.27,198.23"/>
        <lane id=":32519283_2_1" index="1" disallow="tram rail_urban rail rail_electric rail_fast ship" speed="16.67" length="3.43" shape="271.17,191.71 270.82,194.96"/>
    </edge>
    <edge id=":32519357_0" function="internal">
        <lane id=":32519357_0_0" index="0" disallow="tram rail_urban rail rail_electric rail_fast ship" speed="3.65" length="4.67" shape="480.98,125.07 482.22,124.33 483.11,124.31 483.66,125.01 483.87,126.44"/>
    </edge>
    <edge id=":333526143_0" function="internal">
        <lane id=":333526143_0_0" index="0" disallow="pedestrian bicycle tram rail_urban rail rail_electric rail_fast ship" speed="16.67" length="0.30" shape="306.47,252.52 306.60,252.24"/>
        <lane id=":333526143_0_1" index="1" disallow="pedestrian bicycle tram rail_urban rail rail_electric rail_fast ship" speed="16.67" length="0.30" shape="309.39,253.83 309.52,253.55"/>
    </edge>
    <edge id=":33471553_0" function="internal">
        <lane id=":33471553_0_0" index="0" disallow="tram rail_urban rail rail_electric rail_fast ship" speed="6.09" length="7.99" shape="354.59,211.79 353.56,214.50 353.23,216.61 353.60,218.11 354.68,219.01"/>
    </edge>
    <edge id=":33471553_1" function="internal">
        <lane id=":33471553_1_0" index="0" disallow="pedestrian tram rail_urban rail rail_electric rail_fast ship" speed="16.67" length="13.84" shape="354.59,211.79 348.69,224.34"/>
        <lane id=":33471553_1_1" index="1" disallow="pedestrian tram rail_urban rail rail_electric rail_fast ship" speed="16.67" length="13.84" shape="351.68,210.45 345.81,222.94"/>
    </edge>
    <edge id=":33471553_3" function="internal">
        <lane id=":33471553_3_0" index="0" disallow="pedestrian tram rail_urban rail rail_electric rail_fast ship" speed="16.67" length="12.25" shape="344.26,212.74 347.44,214.44 349.45,215.93 351.46,217.39 354.68,219.01"/>
        <lane id=":33471553_3_1" index="1" disallow="pedestrian tram rail_urban rail rail_electric rail_fast ship" speed="16.67" length="12.25" shape="342.95,215.66 346.16,217.37 348.18,218.87 350.21,220.34 353.45,221.97"/>
    </edge>
    <edge id=":523958868_0" function="internal">
        <lane id=":523958868_0_0" index="0" disallow="tram rail_urban rail rail_electric rail_fast ship" speed="6.51" length="9.00" shape="317.86,198.73 320.18,199.55 322.21,199.44 323.95,198.38 325.40,196.38"/>
    </edge>
    <edge id=":523958868_1" function="internal">
        <lane id=":523958868_1_0" index="0" disallow="pedestrian tram rail_urban rail rail_electric rail_fast ship" speed="16.67" length="14.81" shape="316.37,201.57 320.31,203.33 323.18,204.15 326.08,204.89 330.13,206.43"/>
        <lane id=":523958868_1_1" index="1" disallow="pedestrian tram rail_urban rail rail_electric rail_fast ship" speed="16.67" length="14.81" shape="314.89,204.41 318.89,206.20 321.78,207.03 324.72,207.79 328.82,209.35"/>
        <lane id=":523958868_1_2" index="2" disallow="pedestrian tram rail_urban rail rail_electric rail_fast ship" speed="16.67" length="14.81" shape="313.41,207.24 317.46,209.06 320.39,209.91 323.36,210.69 327.52,212.27"/>
    </edge>
    <edge id=":523958868_4" function="internal">
        <lane id=":523958868_4_0" index="0" disallow="pedestrian tram rail_urban rail rail_electric rail_fast ship" speed="16.67" length="16.24" shape="318.24,211.12 320.14,206.64 321.56,203.63 323.11,200.68 325.40,196.38"/>
        <lane id=":523958868_4_1" index="1" disallow="pedestrian tram rail_urban rail rail_electric rail_fast ship" speed="16.67" length="16.24" shape="321.19,212.34 323.06,207.95 324.46,204.99 325.98,202.10 328.23,197.88"/>
    </edge>
    <edge id=":523958868_6" function="internal">
        <lane id=":523958868_6_0" index="0" disallow="pedestrian tram rail_urban rail rail_electric rail_fast ship" speed="6.57" length="9.40" shape="321.19,212.34 322.51,210.13 324.22,208.90 326.32,208.64 328.82,209.35"/>
        <lane id=":523958868_6_1" index="1" disallow="pedestrian tram rail_urban rail rail_electric rail_fast ship" speed="5.75" length="6.97" shape="321.19,212.34 321.97,211.42 323.28,211.11 325.13,211.39 327.52,212.27"/>
    </edge>
    <edge id=":523960191_0" function="internal">
        <lane id=":523960191_0_0" index="0" disallow="tram rail_urban rail rail_electric rail_fast ship" speed="16.67" length="0.24" shape="365.61,185.11 365.54,185.28"/>
        <lane id=":523960191_0_1" index="1" disallow="tram rail_urban rail rail_electric rail_fast ship" speed="16.67" length="0.24" shape="362.66,183.86 362.55,184.13"/>
    </edge>
    <edge id=":523961397_0" function="internal">
        <lane id=":523961397_0_0" index="0" disallow="tram rail_urban rail rail_electric rail_fast ship" speed="16.67" length="9.44" shape="342.70,237.04 338.78,245.61"/>
        <lane id=":523961397_0_1" index="1" disallow="tram rail_urban rail rail_electric rail_fast ship" speed="16.67" length="9.44" shape="339.79,235.72 335.86,244.31"/>
    </edge>
    <edge id=":523961397_2" function="internal">
        <lane id=":523961397_2_0" index="0" disallow="pedestrian tram rail_urban rail rail_electric rail_fast ship" speed="8.70" length="13.57" shape="334.37,231.86 336.40,234.20 337.32,237.06 337.14,240.43 335.86,244.31"/>
    </edge>
    <edge id=":523962960_0" function="internal">
        <lane id=":523962960_0_0" index="0" disallow="tram rail_urban rail rail_electric rail_fast ship" speed="5.71" length="6.61" shape="348.97,237.56 346.54,236.64 344.71,236.21 343.45,236.29 342.79,236.86"/>
    </edge>
    <edge id=":523962960_1" function="internal">
        <lane id=":523962960_1_0" index="0" disallow="pedestrian tram rail_urban rail rail_electric rail_fast ship" speed="16.67" length="14.51" shape="350.23,234.62 336.95,228.67"/>
        <lane id=":523962960_1_1" index="1" disallow="pedestrian tram rail_urban rail rail_electric rail_fast ship" speed="16.67" length="14.51" shape="351.50,231.68 338.31,225.77"/>
    </edge>
    <edge id=":523962960_3" function="internal">
        <lane id=":523962960_3_0" index="0" disallow="pedestrian tram rail_urban rail rail_electric rail_fast ship" speed="16.67" length="13.68" shape="348.60,224.52 342.79,236.86"/>
        <lane id=":523962960_3_1" index="1" disallow="pedestrian tram rail_urban rail rail_electric rail_fast ship" speed="16.67" length="13.68" shape="345.72,223.12 339.87,235.54"/>
    </edge>
    <edge id=":523962960_5" function="internal">
        <lane id=":523962960_5_0" index="0" disallow="pedestrian tram rail_urban rail rail_electric rail_fast ship" speed="6.52" length="8.95" shape="345.72,223.12 344.35,225.16 342.66,226.27 340.64,226.48 338.31,225.77"/>
    </edge>
    <edge id=":523963095_0" function="internal">
        <lane id=":523963095_0_0" index="0" disallow="tram rail_urban rail rail_electric rail_fast ship" speed="16.67" length="13.58" shape="305.52,237.54 311.61,225.30"/>
        <lane id=":523963095_0_1" index="1" disallow="tram rail_urban rail rail_electric rail_fast ship" speed="16.67" length="13.58" shape="308.45,238.82 314.47,226.74"/>
    </edge>
    <edge id=":523963095_2" function="internal">
        <lane id=":523963095_2_0" index="0" disallow="pedestrian tram rail_urban rail rail_electric rail_fast ship" speed="14.71" length="14.97" shape="308.45,238.82 310.76,234.83 313.32,232.36 316.14,230.68 319.26,229.07"/>
    </edge>
    <edge id=":5286026373_0" function="internal">
        <lane id=":5286026373_0_0" index="0" disallow="tram rail_urban rail rail_electric rail_fast ship" speed="16.67" length="0.25" shape="251.11,189.29 250.93,189.21"/>
        <lane id=":5286026373_0_1" index="1" disallow="tram rail_urban rail rail_electric rail_fast ship" speed="16.67" length="0.25" shape="252.46,186.39 252.19,186.27"/>
    </edge>
    <edge id=":5286026384_0" function="internal">
        <lane id=":5286026384_0_0" index="0" disallow="pedestrian tram rail_urban rail rail_electric rail_fast ship" speed="27.78" length="0.71" shape="216.43,158.65 216.74,158.71 216.95,158.75 217.15,158.82 217.44,158.94"/>
        <lane id=":5286026384_0_1" index="1" disallow="pedestrian tram rail_urban rail rail_electric rail_fast ship" speed="27.78" length="0.71" shape="215.89,161.81 216.00,161.82 216.07,161.84 216.14,161.86 216.23,161.90"/>
    </edge>
    <edge id=":5286026394_0" function="internal">
        <lane id=":5286026394_0_0" index="0" allow="pedestrian delivery bicycle" speed="5.28" length="5.25" shape="228.94,155.22 228.68,156.70 228.90,157.92 229.58,158.86 230.73,159.54"/>
    </edge>
    <edge id=":5286026394_1" function="internal">
        <lane id=":5286026394_1_0" index="0" allow="pedestrian delivery bicycle" speed="3.65" length="4.67" shape="228.94,155.22 227.83,156.13 226.94,156.29 226.29,155.67 225.87,154.30"/>
    </edge>
    <edge id=":5286026394_2" function="internal">
        <lane id=":5286026394_2_0" index="0" allow="pedestrian delivery bicycle" speed="4.99" length="5.06" shape="221.96,156.28 223.33,156.55 224.44,156.31 225.28,155.56 225.87,154.30"/>
    </edge>
    <edge id=":5286026394_3" function="internal">
        <lane id=":5286026394_3_0" index="0" disallow="tram rail_urban rail rail_electric rail_fast ship" speed="16.67" length="9.31" shape="221.96,156.28 230.73,159.54"/>
        <lane id=":5286026394_3_1" index="1" disallow="tram rail_urban rail rail_electric rail_fast ship" speed="16.67" length="9.31" shape="220.89,159.29 229.57,162.52"/>
    </edge>
    <edge id=":5544309389_0" function="internal">
        <lane id=":5544309389_0_0" index="0" disallow="tram rail_urban rail rail_electric rail_fast ship" speed="3.65" length="4.67" shape="391.69,-0.94 393.04,-1.44 393.93,-1.30 394.34,-0.50 394.28,0.94"/>
    </edge>
    <edge id=":5729127460_0" function="internal">
        <lane id=":5729127460_0_0" index="0" disallow="tram rail_urban rail rail_electric rail_fast ship" speed="13.89" length="3.56" shape="265.62,208.33 266.10,207.32 266.44,206.63 266.83,205.97 267.43,205.03"/>
        <lane id=":5729127460_0_1" index="1" disallow="tram rail_urban rail rail_electric rail_fast ship" speed="13.89" length="3.56" shape="268.51,209.71 268.93,208.81 269.24,208.20 269.58,207.61 270.11,206.77"/>
    </edge>
    <edge id=":5729138452_0" function="internal">
        <lane id=":5729138452_0_0" index="0" disallow="tram rail_urban rail rail_electric rail_fast ship" speed="5.56" length="3.04" shape="430.86,238.77 429.56,241.52"/>
    </edge>
    <edge id=":5729138452_1" function="internal">
        <lane id=":5729138452_1_0" index="0" disallow="tram rail_urban rail rail_electric rail_fast ship" speed="5.56" length="3.03" shape="426.67,240.15 427.96,237.40"/>
    </edge>
    <edge id=":5731579319_0" function="internal">
        <lane id=":5731579319_0_0" index="0" disallow="tram rail_urban rail rail_electric rail_fast ship" speed="13.89" length="5.33" shape="280.63,165.36 279.76,166.68 279.21,167.62 278.72,168.58 278.05,170.02"/>
    </edge>
    <edge id=":5731579319_1" function="internal">
        <lane id=":5731579319_1_0" index="0" disallow="tram rail_urban rail rail_electric rail_fast ship" speed="13.89" length="5.81" shape="275.15,168.68 275.88,167.11 276.41,166.06 277.01,165.04 277.95,163.60"/>
    </edge>
    <edge id=":7424808750_0" function="internal">
        <lane id=":7424808750_0_0" index="0" allow="pedestrian delivery bicycle" speed="5.56" length="0.30" shape="237.91,125.22 237.83,125.50"/>
    </edge>
    <edge id=":7424808750_1" function="internal">
        <lane id=":7424808750_1_0" index="0" allow="pedestrian delivery bicycle" speed="5.56" length="0.20" shape="234.77,124.59 234.82,124.40"/>
    </edge>
    <edge id=":78041112_0" function="internal">
        <lane id=":78041112_0_0" index="0" disallow="pedestrian bicycle tram rail_urban rail rail_electric rail_fast ship" speed="16.67" length="0.30" shape="325.31,260.51 325.18,260.79"/>
        <lane id=":78041112_0_1" index="1" disallow="pedestrian bicycle tram rail_urban rail rail_electric rail_fast ship" speed="16.67" length="0.30" shape="322.37,259.25 322.25,259.51"/>
    </edge>
    <edge id=":78041136_0" function="internal">
        <lane id=":78041136_0_0" index="0" disallow="tram rail_urban rail rail_electric rail_fast ship" speed="16.67" length="2.13" shape="268.87,176.72 269.93,173.79"/>
        <lane id=":78041136_0_1" index="1" disallow="tram rail_urban rail rail_electric rail_fast ship" speed="16.67" length="2.13" shape="267.19,179.44 268.46,176.63"/>
        <lane id=":78041136_0_2" index="2" disallow="tram rail_urban rail rail_electric rail_fast ship" speed="16.67" length="2.13" shape="267.19,179.44 267.00,179.47"/>
    </edge>
    <edge id=":78041136_3" function="internal">
        <lane id=":78041136_3_0" index="0" disallow="pedestrian tram rail_urban rail rail_electric rail_fast ship" speed="22.22" length="10.95" shape="256.66,174.84 259.92,175.65 262.03,176.58 264.04,177.80 267.00,179.47"/>
        <lane id=":78041136_3_1" index="1" disallow="pedestrian tram rail_urban rail rail_electric rail_fast ship" speed="22.22" length="10.95" shape="256.07,177.99 259.05,178.74 260.98,179.62 262.82,180.77 265.53,182.32"/>
    </edge>
    <edge id=":7836421979_0" function="internal">
        <lane id=":7836421979_0_0" index="0" disallow="tram rail_urban rail rail_electric rail_fast ship" speed="16.67" length="8.60" shape="466.61,284.69 464.16,284.16 462.32,284.56 460.47,284.96 458.01,284.45"/>
        <lane id=":7836421979_0_1" index="1" disallow="tram rail_urban rail rail_electric rail_fast ship" speed="16.67" length="8.60" shape="466.61,284.69 459.28,281.51"/>
        <lane id=":7836421979_0_2" index="2" disallow="tram rail_urban rail rail_electric rail_fast ship" speed="16.67" length="8.60" shape="466.61,284.69 464.55,283.24 463.58,281.62 462.60,280.00 460.54,278.57"/>
        <lane id=":7836421979_0_3" index="3" disallow="tram rail_urban rail rail_electric rail_fast ship" speed="16.67" length="8.60" shape="467.89,281.75 465.83,280.31 464.85,278.69 463.87,277.07 461.81,275.63"/>
    </edge>
    <edge id=":8314359393_0" function="internal">
        <lane id=":8314359393_0_0" index="0" allow="pedestrian delivery bicycle" speed="3.65" length="4.67" shape="318.09,146.87 317.48,145.57 317.56,144.67 318.32,144.20 319.76,144.14"/>
    </edge>
    <edge id=":8314359397_0" function="internal">
        <lane id=":8314359397_0_0" index="0" allow="pedestrian delivery bicycle" speed="4.95" length="5.10" shape="339.50,156.80 340.83,157.29 341.97,157.21 342.90,156.57 343.64,155.36"/>
    </edge>