<?xml version="1.0" encoding="UTF-8"?>

<!-- generated on 2025-08-27 09:29:51 by Eclipse SUMO netconvert Version 1.15.0
<configuration xmlns:xsi="http://www.w3.org/2001/XMLSchema-instance" xsi:noNamespaceSchemaLocation="http://sumo.dlr.de/xsd/netconvertConfiguration.xsd">

    <input>
        <osm-files value="edsa_east.osm"/>
    </input>

    <output>
        <output-file value="edsa_east.net.xml"/>
    </output>

    <projection>
        <proj.utm value="true"/>
    </projection>

</configuration>
-->

<net version="1.9" junctionCornerDetail="5" limitTurnSpeed="5.50" xmlns:xsi="http://www.w3.org/2001/XMLSchema-instance" xsi:noNamespaceSchemaLocation="http://sumo.dlr.de/xsd/net_file.xsd">

    <location netOffset="-289079.14,-1618129.92" convBoundary="0.00,0.00,564.73,1060.48" origBoundary="121.041715,14.628383,121.046999,14.637961" projParameter="+proj=utm +zone=51 +ellps=WGS84 +datum=WGS84 +units=m +no_defs"/>

    <type id="highway.bridleway" priority="1" numLanes="1" speed="2.78" allow="pedestrian" oneway="1" width="2.00"/>
    <type id="highway.bus_guideway" priority="1" numLanes="1" speed="27.78" allow="bus" oneway="1"/>
    <type id="highway.cycleway" priority="1" numLanes="1" speed="5.56" allow="bicycle" oneway="0" width="1.00"/>
    <type id="highway.footway" priority="1" numLanes="1" speed="2.78" allow="pedestrian" oneway="1" width="2.00"/>
    <type id="highway.ford" priority="1" numLanes="1" speed="2.78" allow="army" oneway="0"/>
    <type id="highway.living_street" priority="2" numLanes="1" speed="2.78" disallow="tram rail_urban rail rail_electric rail_fast ship" oneway="0"/>
    <type id="highway.motorway" priority="14" numLanes="2" speed="39.44" allow="private emergency authority army vip passenger hov taxi bus coach delivery truck trailer motorcycle evehicle custom1 custom2" oneway="1"/>
    <type id="highway.motorway_link" priority="9" numLanes="1" speed="22.22" allow="private emergency authority army vip passenger hov taxi bus coach delivery truck trailer motorcycle evehicle custom1 custom2" oneway="1"/>
    <type id="highway.path" priority="1" numLanes="1" speed="5.56" allow="pedestrian bicycle" oneway="0" width="2.00"/>
    <type id="highway.pedestrian" priority="1" numLanes="1" speed="2.78" allow="pedestrian" oneway="1" width="2.00"/>
    <type id="highway.primary" priority="12" numLanes="2" speed="27.78" disallow="tram rail_urban rail rail_electric rail_fast ship" oneway="0"/>
    <type id="highway.primary_link" priority="7" numLanes="1" speed="22.22" disallow="tram rail_urban rail rail_electric rail_fast ship" oneway="0"/>
    <type id="highway.raceway" priority="15" numLanes="2" speed="83.33" allow="vip" oneway="0"/>
    <type id="highway.residential" priority="3" numLanes="1" speed="13.89" disallow="tram rail_urban rail rail_electric rail_fast ship" oneway="0"/>
    <type id="highway.secondary" priority="11" numLanes="1" speed="27.78" disallow="tram rail_urban rail rail_electric rail_fast ship" oneway="0"/>
    <type id="highway.secondary_link" priority="6" numLanes="1" speed="22.22" disallow="tram rail_urban rail rail_electric rail_fast ship" oneway="0"/>
    <type id="highway.service" priority="1" numLanes="1" speed="5.56" allow="pedestrian delivery bicycle" oneway="0"/>
    <type id="highway.stairs" priority="1" numLanes="1" speed="1.39" allow="pedestrian" oneway="1" width="2.00"/>
    <type id="highway.step" priority="1" numLanes="1" speed="1.39" allow="pedestrian" oneway="1" width="2.00"/>
    <type id="highway.steps" priority="1" numLanes="1" speed="1.39" allow="pedestrian" oneway="1" width="2.00"/>
    <type id="highway.tertiary" priority="10" numLanes="1" speed="22.22" disallow="tram rail_urban rail rail_electric rail_fast ship" oneway="0"/>
    <type id="highway.tertiary_link" priority="5" numLanes="1" speed="22.22" disallow="tram rail_urban rail rail_electric rail_fast ship" oneway="0"/>
    <type id="highway.track" priority="1" numLanes="1" speed="5.56" allow="pedestrian motorcycle moped bicycle" oneway="0"/>
    <type id="highway.trunk" priority="13" numLanes="2" speed="27.78" disallow="pedestrian bicycle tram rail_urban rail rail_electric rail_fast ship" oneway="0"/>
    <type id="highway.trunk_link" priority="8" numLanes="1" speed="22.22" disallow="pedestrian bicycle tram rail_urban rail rail_electric rail_fast ship" oneway="0"/>
    <type id="highway.unclassified" priority="4" numLanes="1" speed="13.89" disallow="tram rail_urban rail rail_electric rail_fast ship" oneway="0"/>
    <type id="highway.unsurfaced" priority="1" numLanes="1" speed="8.33" disallow="tram rail_urban rail rail_electric rail_fast ship" oneway="0"/>
    <type id="railway.highspeed" priority="21" numLanes="1" speed="69.44" allow="rail_fast" oneway="1"/>
    <type id="railway.light_rail" priority="19" numLanes="1" speed="27.78" allow="rail_urban" oneway="1"/>
    <type id="railway.preserved" priority="16" numLanes="1" speed="27.78" allow="rail" oneway="1"/>
    <type id="railway.rail" priority="20" numLanes="1" speed="44.44" allow="rail" oneway="1"/>
    <type id="railway.subway" priority="18" numLanes="1" speed="27.78" allow="rail_urban" oneway="1"/>
    <type id="railway.tram" priority="17" numLanes="1" speed="13.89" allow="tram" oneway="1"/>

    <edge id=":1054417187_0" function="internal">
        <lane id=":1054417187_0_0" index="0" disallow="pedestrian tram rail_urban rail rail_electric rail_fast ship" speed="16.67" length="41.01" shape="247.21,502.03 287.17,493.25"/>
        <lane id=":1054417187_0_1" index="1" disallow="pedestrian tram rail_urban rail rail_electric rail_fast ship" speed="16.67" length="41.01" shape="247.76,505.18 287.92,496.36"/>
    </edge>
    <edge id=":1054417187_2" function="internal">
        <lane id=":1054417187_2_0" index="0" disallow="pedestrian tram rail_urban rail rail_electric rail_fast ship" speed="11.11" length="41.05" shape="247.76,505.18 256.22,503.31 266.30,501.17 277.23,500.15 288.24,501.62"/>
        <lane id=":1054417187_2_1" index="1" disallow="pedestrian tram rail_urban rail rail_electric rail_fast ship" speed="11.11" length="40.79" shape="247.76,505.18 256.21,503.83 266.28,502.84 277.21,502.96 288.22,504.94"/>
        <lane id=":1054417187_2_2" index="2" disallow="pedestrian tram rail_urban rail rail_electric rail_fast ship" speed="11.11" length="40.83" shape="247.76,505.18 256.21,504.35 266.27,504.50 277.18,505.77 288.19,508.27"/>
    </edge>
    <edge id=":1054417190_0" function="internal">
        <lane id=":1054417190_0_0" index="0" disallow="pedestrian tram rail_urban rail rail_electric rail_fast ship" speed="11.11" length="0.39" shape="301.92,506.86 302.38,507.06"/>
        <lane id=":1054417190_0_1" index="1" disallow="pedestrian tram rail_urban rail rail_electric rail_fast ship" speed="11.11" length="0.39" shape="300.72,509.83 301.07,509.98"/>
        <lane id=":1054417190_0_2" index="2" disallow="pedestrian tram rail_urban rail rail_electric rail_fast ship" speed="11.11" length="0.39" shape="299.52,512.80 299.77,512.90"/>
    </edge>
    <edge id=":10669863874_0" function="internal">
        <lane id=":10669863874_0_0" index="0" disallow="pedestrian tram rail_urban rail rail_electric rail_fast ship" speed="27.78" length="1.18" shape="329.23,520.01 328.17,519.48"/>
        <lane id=":10669863874_0_1" index="1" disallow="pedestrian tram rail_urban rail rail_electric rail_fast ship" speed="27.78" length="1.18" shape="327.80,522.87 326.75,522.35"/>
        <lane id=":10669863874_0_2" index="2" disallow="pedestrian tram rail_urban rail rail_electric rail_fast ship" speed="27.78" length="1.18" shape="326.38,525.73 325.33,525.21"/>
    </edge>
    <edge id=":1149359379_0" function="internal">
        <lane id=":1149359379_0_0" index="0" disallow="tram rail_urban rail rail_electric rail_fast ship" speed="11.11" length="10.14" shape="195.49,523.06 185.58,525.75"/>
        <lane id=":1149359379_0_1" index="1" disallow="tram rail_urban rail rail_electric rail_fast ship" speed="11.11" length="10.14" shape="194.54,520.00 184.87,522.63"/>
    </edge>
    <edge id=":1149359379_2" function="internal">
        <lane id=":1149359379_2_0" index="0" allow="pedestrian delivery bicycle" speed="7.57" length="3.22" shape="194.54,520.00 191.45,520.31 191.35,520.26"/>
    </edge>
    <edge id=":1149359379_9" function="internal">
        <lane id=":1149359379_9_0" index="0" allow="pedestrian delivery bicycle" speed="7.57" length="10.27" shape="191.35,520.26 188.95,519.13 187.05,516.47 185.73,512.32"/>
    </edge>
    <edge id=":1149359379_3" function="internal">
        <lane id=":1149359379_3_0" index="0" allow="pedestrian delivery bicycle" speed="4.94" length="5.12" shape="188.86,511.66 189.35,513.00 190.14,513.82 191.24,514.11 192.64,513.89"/>
    </edge>
    <edge id=":1149359379_4" function="internal">
        <lane id=":1149359379_4_0" index="0" allow="pedestrian delivery bicycle" speed="7.75" length="13.06" shape="188.86,511.66 189.36,515.95 188.87,519.20 187.37,521.43 184.87,522.63"/>
    </edge>
    <edge id=":1149359379_5" function="internal">
        <lane id=":1149359379_5_0" index="0" allow="pedestrian delivery bicycle" speed="3.65" length="4.67" shape="188.86,511.66 188.32,513.00 187.62,513.56 186.76,513.33 185.73,512.32"/>
    </edge>
    <edge id=":1149359379_6" function="internal">
        <lane id=":1149359379_6_0" index="0" allow="pedestrian delivery bicycle" speed="5.20" length="5.30" shape="183.44,516.39 184.71,515.88 185.51,515.03 185.85,513.84 185.73,512.32"/>
    </edge>
    <edge id=":1149359379_7" function="internal">
        <lane id=":1149359379_7_0" index="0" disallow="tram rail_urban rail rail_electric rail_fast ship" speed="11.11" length="9.65" shape="183.44,516.39 192.64,513.89"/>
        <lane id=":1149359379_7_1" index="1" disallow="tram rail_urban rail rail_electric rail_fast ship" speed="11.11" length="9.65" shape="184.16,519.51 193.59,516.94"/>
    </edge>
    <edge id=":12079315891_0" function="internal">
        <lane id=":12079315891_0_0" index="0" allow="pedestrian delivery bicycle" speed="5.56" length="5.11" shape="394.38,607.21 389.39,608.25"/>
    </edge>
    <edge id=":12079315892_0" function="internal">
        <lane id=":12079315892_0_0" index="0" allow="pedestrian delivery bicycle" speed="5.56" length="5.08" shape="386.21,595.17 391.17,594.08"/>
    </edge>
    <edge id=":12079315894_0" function="internal">
        <lane id=":12079315894_0_0" index="0" allow="pedestrian delivery bicycle" speed="5.56" length="0.26" shape="412.82,600.26 412.78,600.52"/>
    </edge>
    <edge id=":12079315895_0" function="internal">
        <lane id=":12079315895_0_0" index="0" allow="pedestrian delivery bicycle" speed="5.56" length="0.10" shape="409.33,590.85 409.33,590.85"/>
    </edge>
    <edge id=":12079315896_0" function="internal">
        <lane id=":12079315896_0_0" index="0" allow="pedestrian delivery bicycle" speed="5.01" length="5.03" shape="388.50,608.44 387.20,608.91 386.38,609.68 386.02,610.76 386.15,612.13"/>
    </edge>
    <edge id=":12079315896_1" function="internal">
        <lane id=":12079315896_1_0" index="0" disallow="tram rail_urban rail rail_electric rail_fast ship" speed="27.78" length="6.22" shape="384.74,606.09 386.15,612.13"/>
        <lane id=":12079315896_1_1" index="1" disallow="tram rail_urban rail rail_electric rail_fast ship" speed="27.78" length="6.22" shape="381.62,606.81 383.03,612.87"/>
        <lane id=":12079315896_1_2" index="2" disallow="tram rail_urban rail rail_electric rail_fast ship" speed="27.78" length="6.22" shape="378.50,607.53 379.92,613.60"/>
    </edge>
    <edge id=":12079315897_0" function="internal">
        <lane id=":12079315897_0_0" index="0" allow="pedestrian delivery bicycle" speed="5.08" length="5.02" shape="381.69,593.02 382.20,594.28 382.99,595.09 384.08,595.44 385.45,595.33"/>
    </edge>
    <edge id=":12079315897_1" function="internal">
        <lane id=":12079315897_1_0" index="0" disallow="tram rail_urban rail rail_electric rail_fast ship" speed="27.78" length="6.16" shape="381.69,593.02 383.11,599.04"/>
        <lane id=":12079315897_1_1" index="1" disallow="tram rail_urban rail rail_electric rail_fast ship" speed="27.78" length="6.16" shape="378.58,593.77 379.99,599.76"/>
        <lane id=":12079315897_1_2" index="2" disallow="tram rail_urban rail rail_electric rail_fast ship" speed="27.78" length="6.16" shape="375.47,594.52 376.87,600.48"/>
    </edge>
    <edge id=":12099009300_0" function="internal">
        <lane id=":12099009300_0_0" index="0" disallow="pedestrian tram rail_urban rail rail_electric rail_fast ship" speed="27.78" length="2.90" shape="350.73,567.07 350.52,566.61 350.37,566.30 350.19,566.01 349.91,565.59"/>
        <lane id=":12099009300_0_1" index="1" disallow="pedestrian tram rail_urban rail rail_electric rail_fast ship" speed="27.78" length="2.90" shape="353.85,565.76 352.56,563.78"/>
        <lane id=":12099009300_0_2" index="2" disallow="pedestrian tram rail_urban rail rail_electric rail_fast ship" speed="27.78" length="2.90" shape="356.82,564.48 355.20,561.98"/>
        <lane id=":12099009300_0_3" index="3" disallow="pedestrian tram rail_urban rail rail_electric rail_fast ship" speed="27.78" length="2.90" shape="359.81,563.24 357.84,560.17"/>
        <lane id=":12099009300_0_4" index="4" disallow="pedestrian tram rail_urban rail rail_electric rail_fast ship" speed="27.78" length="2.90" shape="362.55,561.59 360.48,558.37"/>
    </edge>
    <edge id=":12099009300_5" function="internal">
        <lane id=":12099009300_5_0" index="0" disallow="pedestrian tram rail_urban rail rail_electric rail_fast ship" speed="10.78" length="6.34" shape="362.55,561.59 356.22,561.91"/>
    </edge>
    <edge id=":12111382751_0" function="internal">
        <lane id=":12111382751_0_0" index="0" allow="delivery bicycle" speed="5.04" length="4.78" shape="326.80,532.59 325.49,532.05 324.35,531.98 323.39,532.39 322.60,533.27"/>
    </edge>
    <edge id=":12111382751_1" function="internal">
        <lane id=":12111382751_1_0" index="0" disallow="pedestrian tram rail_urban rail rail_electric rail_fast ship" speed="22.22" length="6.39" shape="326.80,532.59 321.21,529.49"/>
    </edge>
    <edge id=":12111382751_2" function="internal">
        <lane id=":12111382751_2_0" index="0" allow="delivery bicycle" speed="5.56" length="5.83" shape="325.71,528.34 322.60,533.27"/>
    </edge>
    <edge id=":12111382751_3" function="internal">
        <lane id=":12111382751_3_0" index="0" allow="delivery bicycle" speed="5.24" length="5.23" shape="325.71,528.34 324.79,529.42 323.73,529.98 322.53,530.00 321.21,529.49"/>
    </edge>
    <edge id=":12132580801_0" function="internal">
        <lane id=":12132580801_0_0" index="0" disallow="pedestrian tram rail_urban rail rail_electric rail_fast ship" speed="5.33" length="5.68" shape="343.96,543.32 342.95,542.51 341.51,541.32 340.12,540.38 339.28,540.35"/>
    </edge>
    <edge id=":12132580801_1" function="internal">
        <lane id=":12132580801_1_0" index="0" disallow="pedestrian tram rail_urban rail rail_electric rail_fast ship" speed="22.22" length="17.53" shape="343.96,543.32 329.17,533.90"/>
    </edge>
    <edge id=":12132580801_2" function="internal">
        <lane id=":12132580801_2_0" index="0" disallow="pedestrian tram rail_urban rail rail_electric rail_fast ship" speed="16.67" length="3.21" shape="341.01,537.57 339.28,540.35"/>
        <lane id=":12132580801_2_1" index="1" disallow="pedestrian tram rail_urban rail rail_electric rail_fast ship" speed="16.67" length="3.21" shape="338.30,535.87 336.60,538.59"/>
        <lane id=":12132580801_2_2" index="2" disallow="pedestrian tram rail_urban rail rail_electric rail_fast ship" speed="16.67" length="3.21" shape="335.59,534.18 333.92,536.84"/>
    </edge>
    <edge id=":12132597302_0" function="internal">
        <lane id=":12132597302_0_0" index="0" allow="delivery bicycle" speed="4.88" length="5.21" shape="209.31,520.06 207.88,520.34 206.95,521.02 206.55,522.08 206.65,523.54"/>
    </edge>
    <edge id=":12132597302_1" function="internal">
        <lane id=":12132597302_1_0" index="0" disallow="pedestrian tram rail_urban rail rail_electric rail_fast ship" speed="11.11" length="6.18" shape="209.31,520.06 203.10,520.32"/>
        <lane id=":12132597302_1_1" index="1" disallow="pedestrian tram rail_urban rail rail_electric rail_fast ship" speed="11.11" length="6.18" shape="209.15,516.87 203.01,517.12"/>
    </edge>
    <edge id=":12132597401_0" function="internal">
        <lane id=":12132597401_0_0" index="0" allow="delivery bicycle" speed="5.07" length="4.51" shape="199.83,523.73 202.80,520.33"/>
    </edge>
    <edge id=":12132597401_1" function="internal">
        <lane id=":12132597401_1_0" index="0" disallow="pedestrian tram rail_urban rail rail_electric rail_fast ship" speed="11.11" length="0.20" shape="202.61,520.33 202.80,520.33"/>
        <lane id=":12132597401_1_1" index="1" disallow="pedestrian tram rail_urban rail rail_electric rail_fast ship" speed="11.11" length="0.20" shape="202.52,517.13 202.71,517.13"/>
    </edge>
    <edge id=":224865393_0" function="internal">
        <lane id=":224865393_0_0" index="0" disallow="tram rail_urban rail rail_electric rail_fast ship" speed="25.00" length="26.42" shape="365.15,533.85 366.02,540.27 367.01,545.66 368.59,551.50 371.21,559.28"/>
        <lane id=":224865393_0_1" index="1" disallow="tram rail_urban rail rail_electric rail_fast ship" speed="25.00" length="26.42" shape="362.02,534.53 362.90,540.99 363.92,546.47 365.53,552.43 368.20,560.35"/>
    </edge>
    <edge id=":224865393_2" function="internal">
        <lane id=":224865393_2_0" index="0" disallow="pedestrian tram rail_urban rail rail_electric rail_fast ship" speed="27.54" length="27.16" shape="357.09,536.46 362.73,542.18 366.08,546.62 368.46,551.69 371.21,559.28"/>
        <lane id=":224865393_2_1" index="1" disallow="pedestrian tram rail_urban rail rail_electric rail_fast ship" speed="27.45" length="27.16" shape="353.91,537.84 359.56,543.50 362.97,547.86 365.43,552.84 368.20,560.35"/>
        <lane id=":224865393_2_2" index="2" disallow="pedestrian tram rail_urban rail rail_electric rail_fast ship" speed="22.28" length="27.16" shape="350.74,539.22 356.77,544.38 360.21,548.70 362.52,553.84 365.18,561.42"/>
    </edge>
    <edge id=":224865426_0" function="internal">
        <lane id=":224865426_0_0" index="0" disallow="pedestrian tram rail_urban rail rail_electric rail_fast ship" speed="27.78" length="18.76" shape="337.79,554.35 333.55,550.82 331.26,547.65 328.91,544.56 324.52,541.29"/>
        <lane id=":224865426_0_1" index="1" disallow="pedestrian tram rail_urban rail rail_electric rail_fast ship" speed="27.78" length="18.76" shape="339.35,551.55 335.12,548.03 332.83,544.86 330.49,541.78 326.11,538.51"/>
    </edge>
    <edge id=":224865426_2" function="internal">
        <lane id=":224865426_2_0" index="0" disallow="pedestrian tram rail_urban rail rail_electric rail_fast ship" speed="16.67" length="18.13" shape="339.17,540.52 329.50,555.76"/>
        <lane id=":224865426_2_1" index="1" disallow="pedestrian tram rail_urban rail rail_electric rail_fast ship" speed="16.67" length="18.13" shape="336.49,538.76 326.78,554.07"/>
        <lane id=":224865426_2_2" index="2" disallow="pedestrian tram rail_urban rail rail_electric rail_fast ship" speed="16.67" length="18.13" shape="333.81,537.01 324.06,552.38"/>
    </edge>
    <edge id=":224865478_0" function="internal">
        <lane id=":224865478_0_0" index="0" disallow="pedestrian tram rail_urban rail rail_electric rail_fast ship" speed="9.08" length="9.09" shape="280.21,523.21 278.83,520.69 277.36,518.77 275.81,517.47 274.17,516.78"/>
    </edge>
    <edge id=":224865478_1" function="internal">
        <lane id=":224865478_1_0" index="0" disallow="pedestrian tram rail_urban rail rail_electric rail_fast ship" speed="11.11" length="9.70" shape="283.01,520.05 280.49,518.81 278.72,518.03 276.89,517.44 274.17,516.78"/>
        <lane id=":224865478_1_1" index="1" disallow="pedestrian tram rail_urban rail rail_electric rail_fast ship" speed="11.11" length="9.70" shape="284.18,517.06 281.53,515.76 279.68,514.96 277.75,514.35 274.88,513.66"/>
    </edge>
    <edge id=":24081884_0" function="internal">
        <lane id=":24081884_0_0" index="0" disallow="pedestrian tram rail_urban rail rail_electric rail_fast ship" speed="6.97" length="9.88" shape="302.80,507.25 305.48,508.05 307.78,507.91 309.71,506.83 311.27,504.79"/>
    </edge>
    <edge id=":24081884_1" function="internal">
        <lane id=":24081884_1_0" index="0" disallow="pedestrian tram rail_urban rail rail_electric rail_fast ship" speed="19.45" length="17.90" shape="302.80,507.25 319.11,514.95"/>
        <lane id=":24081884_1_1" index="1" disallow="pedestrian tram rail_urban rail rail_electric rail_fast ship" speed="19.45" length="17.90" shape="301.49,510.17 317.68,517.82"/>
        <lane id=":24081884_1_2" index="2" disallow="pedestrian tram rail_urban rail rail_electric rail_fast ship" speed="19.45" length="17.90" shape="300.18,513.09 316.25,520.68"/>
    </edge>
    <edge id=":24081884_4" function="internal">
        <lane id=":24081884_4_0" index="0" disallow="pedestrian tram rail_urban rail rail_electric rail_fast ship" speed="16.67" length="18.80" shape="301.80,520.80 311.27,504.79"/>
        <lane id=":24081884_4_1" index="1" disallow="pedestrian tram rail_urban rail rail_electric rail_fast ship" speed="16.67" length="18.80" shape="304.51,522.51 314.08,506.33"/>
        <lane id=":24081884_4_2" index="2" disallow="pedestrian tram rail_urban rail rail_electric rail_fast ship" speed="16.67" length="18.80" shape="307.21,524.22 316.88,507.86"/>
    </edge>
    <edge id=":24081884_7" function="internal">
        <lane id=":24081884_7_0" index="0" disallow="pedestrian tram rail_urban rail rail_electric rail_fast ship" speed="9.33" length="19.62" shape="314.53,525.80 312.53,523.49 312.25,519.73 313.70,514.52 316.88,507.86"/>
    </edge>
    <edge id=":24081972_0" function="internal">
        <lane id=":24081972_0_0" index="0" disallow="tram rail_urban rail rail_electric rail_fast ship" speed="19.44" length="26.58" shape="368.10,488.53 365.25,496.27 364.09,502.28 363.87,507.91 363.86,514.49"/>
        <lane id=":24081972_0_1" index="1" disallow="tram rail_urban rail rail_electric rail_fast ship" speed="19.44" length="26.75" shape="368.10,488.53 364.74,496.23 362.48,502.06 361.17,507.49 360.67,513.98"/>
    </edge>
    <edge id=":24081972_2" function="internal">
        <lane id=":24081972_2_0" index="0" disallow="pedestrian tram rail_urban rail rail_electric rail_fast ship" speed="16.67" length="25.81" shape="368.10,488.53 356.37,511.72"/>
        <lane id=":24081972_2_1" index="1" disallow="pedestrian tram rail_urban rail rail_electric rail_fast ship" speed="16.67" length="25.81" shape="365.16,487.25 353.51,510.28"/>
        <lane id=":24081972_2_2" index="2" disallow="pedestrian tram rail_urban rail rail_electric rail_fast ship" speed="16.67" length="25.81" shape="362.23,485.98 350.65,508.85"/>
    </edge>
    <edge id=":243461145_0" function="internal">
        <lane id=":243461145_0_0" index="0" disallow="pedestrian tram rail_urban rail rail_electric rail_fast ship" speed="6.79" length="8.91" shape="349.34,523.74 348.51,525.85 348.56,527.85 349.49,529.74 351.29,531.53"/>
        <lane id=":243461145_0_1" index="1" disallow="pedestrian tram rail_urban rail rail_electric rail_fast ship" speed="8.36" length="13.98" shape="346.57,522.13 345.29,525.42 345.39,528.55 346.86,531.53 349.69,534.35"/>
    </edge>
    <edge id=":243461145_2" function="internal">
        <lane id=":243461145_2_0" index="0" disallow="pedestrian tram rail_urban rail rail_electric rail_fast ship" speed="16.67" length="16.48" shape="343.80,520.52 342.21,525.25 342.55,529.01 342.85,532.75 341.12,537.40"/>
        <lane id=":243461145_2_1" index="1" disallow="pedestrian tram rail_urban rail rail_electric rail_fast ship" speed="16.67" length="16.48" shape="343.80,520.52 341.85,524.87 341.19,528.16 340.49,531.43 338.41,535.70"/>
        <lane id=":243461145_2_2" index="2" disallow="pedestrian tram rail_urban rail rail_electric rail_fast ship" speed="16.67" length="16.48" shape="343.80,520.52 335.70,534.01"/>
    </edge>
    <edge id=":243461145_5" function="internal">
        <lane id=":243461145_5_0" index="0" disallow="pedestrian tram rail_urban rail rail_electric rail_fast ship" speed="27.78" length="18.26" shape="335.07,522.84 340.08,525.09 343.56,526.57 346.85,528.36 351.29,531.53"/>
        <lane id=":243461145_5_1" index="1" disallow="pedestrian tram rail_urban rail rail_electric rail_fast ship" speed="27.78" length="18.26" shape="333.68,525.72 338.63,527.95 342.07,529.42 345.31,531.20 349.69,534.35"/>
        <lane id=":243461145_5_2" index="2" disallow="pedestrian tram rail_urban rail rail_electric rail_fast ship" speed="27.78" length="18.26" shape="332.29,528.60 337.18,530.81 340.58,532.27 343.78,534.04 348.10,537.16"/>
    </edge>
    <edge id=":255049911_0" function="internal">
        <lane id=":255049911_0_0" index="0" allow="pedestrian delivery bicycle" speed="3.65" length="4.67" shape="434.47,615.37 433.14,614.81 432.60,614.10 432.84,613.24 433.86,612.23"/>
    </edge>
    <edge id=":2663326736_0" function="internal">
        <lane id=":2663326736_0_0" index="0" allow="pedestrian delivery bicycle" speed="3.65" length="4.67" shape="210.12,498.87 210.64,497.52 211.33,496.96 212.20,497.17 213.24,498.17"/>
    </edge>
    <edge id=":2663326752_0" function="internal">
        <lane id=":2663326752_0_0" index="0" allow="delivery bicycle" speed="5.06" length="4.97" shape="214.75,505.17 215.22,506.45 215.98,507.28 217.05,507.65 218.40,507.59"/>
    </edge>
    <edge id=":2663326752_1" function="internal">
        <lane id=":2663326752_1_0" index="0" allow="pedestrian delivery bicycle" speed="3.65" length="4.67" shape="214.75,505.17 214.22,506.51 213.52,507.07 212.65,506.85 211.62,505.85"/>
    </edge>
    <edge id=":2663326752_2" function="internal">
        <lane id=":2663326752_2_0" index="0" allow="delivery bicycle" speed="5.25" length="5.09" shape="209.49,509.88 210.68,509.29 211.42,508.42 211.74,507.27 211.62,505.85"/>
    </edge>
    <edge id=":2663326752_3" function="internal">
        <lane id=":2663326752_3_0" index="0" disallow="pedestrian tram rail_urban rail rail_electric rail_fast ship" speed="11.11" length="9.01" shape="209.49,509.88 212.10,509.04 213.90,508.53 215.72,508.11 218.40,507.59"/>
        <lane id=":2663326752_3_1" index="1" disallow="pedestrian tram rail_urban rail rail_electric rail_fast ship" speed="11.11" length="9.01" shape="210.49,512.92 212.98,512.12 214.70,511.63 216.45,511.23 219.01,510.73"/>
    </edge>
    <edge id=":299228801_0" function="internal">
        <lane id=":299228801_0_0" index="0" allow="pedestrian delivery bicycle" speed="5.56" length="5.13" shape="211.20,538.47 211.60,539.94 211.73,541.02 211.99,542.03 212.79,543.27"/>
    </edge>
    <edge id=":299228801_1" function="internal">
        <lane id=":299228801_1_0" index="0" allow="pedestrian delivery bicycle" speed="5.56" length="5.27" shape="207.82,541.81 209.63,542.01 211.06,542.32 212.12,542.74 212.79,543.27"/>
    </edge>
    <edge id=":314513290_0" function="internal">
        <lane id=":314513290_0_0" index="0" allow="delivery bicycle" speed="5.56" length="1.23" shape="325.92,528.00 326.57,526.97"/>
    </edge>
    <edge id=":3666796543_0" function="internal">
        <lane id=":3666796543_0_0" index="0" allow="pedestrian delivery bicycle" speed="3.65" length="4.67" shape="249.04,529.55 249.72,530.83 249.69,531.72 248.96,532.23 247.52,532.37"/>
    </edge>
    <edge id=":3666796561_0" function="internal">
        <lane id=":3666796561_0_0" index="0" disallow="tram rail_urban rail rail_electric rail_fast ship" speed="10.44" length="11.18" shape="324.34,571.46 321.07,572.19 318.37,573.28 316.25,574.71 314.71,576.50"/>
    </edge>
    <edge id=":3666796561_1" function="internal">
        <lane id=":3666796561_1_0" index="0" disallow="pedestrian tram rail_urban rail rail_electric rail_fast ship" speed="16.67" length="10.77" shape="321.68,568.32 319.80,570.88 318.21,572.42 316.62,573.95 314.71,576.50"/>
        <lane id=":3666796561_1_1" index="1" disallow="pedestrian tram rail_urban rail rail_electric rail_fast ship" speed="16.67" length="10.77" shape="318.97,566.63 317.09,569.18 315.51,570.72 313.91,572.24 312.01,574.78"/>
    </edge>
    <edge id=":3666796566_0" function="internal">
        <lane id=":3666796566_0_0" index="0" disallow="tram rail_urban rail rail_electric rail_fast ship" speed="13.89" length="9.48" shape="458.71,603.85 461.18,613.03"/>
        <lane id=":3666796566_0_1" index="1" disallow="tram rail_urban rail rail_electric rail_fast ship" speed="13.89" length="9.48" shape="455.63,604.71 458.08,613.83"/>
    </edge>
    <edge id=":3666796566_2" function="internal">
        <lane id=":3666796566_2_0" index="0" allow="pedestrian delivery bicycle" speed="6.00" length="7.99" shape="455.63,604.71 456.17,607.46 456.07,609.53 455.32,610.90 453.93,611.58"/>
    </edge>
    <edge id=":3666796566_3" function="internal">
        <lane id=":3666796566_3_0" index="0" allow="pedestrian delivery bicycle" speed="6.26" length="7.91" shape="453.32,608.44 454.82,608.54 456.11,609.47 457.20,611.24 458.08,613.83"/>
    </edge>
    <edge id=":3666796566_4" function="internal">
        <lane id=":3666796566_4_0" index="0" allow="pedestrian delivery bicycle" speed="3.65" length="4.67" shape="453.32,608.44 454.65,608.99 455.20,609.70 454.96,610.56 453.93,611.58"/>
    </edge>
    <edge id=":3666796573_0" function="internal">
        <lane id=":3666796573_0_0" index="0" allow="pedestrian delivery bicycle" speed="5.56" length="0.54" shape="209.37,556.57 209.21,556.62 209.11,556.64 209.00,556.65 208.84,556.65"/>
    </edge>
    <edge id=":462068195_0" function="internal">