<?xml version="1.0" encoding="UTF-8"?>

<!-- generated on 2025-08-25 18:49:30 by Eclipse SUMO netconvert Version 1.15.0
<configuration xmlns:xsi="http://www.w3.org/2001/XMLSchema-instance" xsi:noNamespaceSchemaLocation="http://sumo.dlr.de/xsd/netconvertConfiguration.xsd">

    <input>
        <osm-files value="map.osm"/>
    </input>

    <output>
        <output-file value="test.net.xml"/>
    </output>

    <projection>
        <proj.utm value="true"/>
    </projection>

</configuration>
-->

<net version="1.9" junctionCornerDetail="5" limitTurnSpeed="5.50" xmlns:xsi="http://www.w3.org/2001/XMLSchema-instance" xsi:noNamespaceSchemaLocation="http://sumo.dlr.de/xsd/net_file.xsd">

    <location netOffset="-288768.16,-1618072.20" convBoundary="0.00,0.00,1443.27,719.63" origBoundary="121.038877,14.624622,121.052235,14.634358" projParameter="+proj=utm +zone=51 +ellps=WGS84 +datum=WGS84 +units=m +no_defs"/>

    <type id="highway.bridleway" priority="1" numLanes="1" speed="2.78" allow="pedestrian" oneway="1" width="2.00"/>
    <type id="highway.bus_guideway" priority="1" numLanes="1" speed="27.78" allow="bus" oneway="1"/>
    <type id="highway.cycleway" priority="1" numLanes="1" speed="5.56" allow="bicycle" oneway="0" width="1.00"/>
    <type id="highway.footway" priority="1" numLanes="1" speed="2.78" allow="pedestrian" oneway="1" width="2.00"/>
    <type id="highway.ford" priority="1" numLanes="1" speed="2.78" allow="army" oneway="0"/>
    <type id="highway.living_street" priority="2" numLanes="1" speed="2.78" disallow="tram rail_urban rail rail_electric rail_fast ship" oneway="0"/>
    <type id="highway.motorway" priority="14" numLanes="2" speed="39.44" allow="private emergency authority army vip passenger hov taxi bus coach delivery truck trailer motorcycle evehicle custom1 custom2" oneway="1"/>
    <type id="highway.motorway_link" priority="9" numLanes="1" speed="22.22" allow="private emergency authority army vip passenger hov taxi bus coach delivery truck trailer motorcycle evehicle custom1 custom2" oneway="1"/>
    <type id="highway.path" priority="1" numLanes="1" speed="5.56" allow="pedestrian bicycle" oneway="0" width="2.00"/>
    <type id="highway.pedestrian" priority="1" numLanes="1" speed="2.78" allow="pedestrian" oneway="1" width="2.00"/>
    <type id="highway.primary" priority="12" numLanes="2" speed="27.78" disallow="tram rail_urban rail rail_electric rail_fast ship" oneway="0"/>
    <type id="highway.primary_link" priority="7" numLanes="1" speed="22.22" disallow="tram rail_urban rail rail_electric rail_fast ship" oneway="0"/>
    <type id="highway.raceway" priority="15" numLanes="2" speed="83.33" allow="vip" oneway="0"/>
    <type id="highway.residential" priority="3" numLanes="1" speed="13.89" disallow="tram rail_urban rail rail_electric rail_fast ship" oneway="0"/>
    <type id="highway.secondary" priority="11" numLanes="1" speed="27.78" disallow="tram rail_urban rail rail_electric rail_fast ship" oneway="0"/>
    <type id="highway.secondary_link" priority="6" numLanes="1" speed="22.22" disallow="tram rail_urban rail rail_electric rail_fast ship" oneway="0"/>
    <type id="highway.service" priority="1" numLanes="1" speed="5.56" allow="pedestrian delivery bicycle" oneway="0"/>
    <type id="highway.stairs" priority="1" numLanes="1" speed="1.39" allow="pedestrian" oneway="1" width="2.00"/>
    <type id="highway.step" priority="1" numLanes="1" speed="1.39" allow="pedestrian" oneway="1" width="2.00"/>
    <type id="highway.steps" priority="1" numLanes="1" speed="1.39" allow="pedestrian" oneway="1" width="2.00"/>
    <type id="highway.tertiary" priority="10" numLanes="1" speed="22.22" disallow="tram rail_urban rail rail_electric rail_fast ship" oneway="0"/>
    <type id="highway.tertiary_link" priority="5" numLanes="1" speed="22.22" disallow="tram rail_urban rail rail_electric rail_fast ship" oneway="0"/>
    <type id="highway.track" priority="1" numLanes="1" speed="5.56" allow="pedestrian motorcycle moped bicycle" oneway="0"/>
    <type id="highway.trunk" priority="13" numLanes="2" speed="27.78" disallow="pedestrian bicycle tram rail_urban rail rail_electric rail_fast ship" oneway="0"/>
    <type id="highway.trunk_link" priority="8" numLanes="1" speed="22.22" disallow="pedestrian bicycle tram rail_urban rail rail_electric rail_fast ship" oneway="0"/>
    <type id="highway.unclassified" priority="4" numLanes="1" speed="13.89" disallow="tram rail_urban rail rail_electric rail_fast ship" oneway="0"/>
    <type id="highway.unsurfaced" priority="1" numLanes="1" speed="8.33" disallow="tram rail_urban rail rail_electric rail_fast ship" oneway="0"/>
    <type id="railway.highspeed" priority="21" numLanes="1" speed="69.44" allow="rail_fast" oneway="1"/>
    <type id="railway.light_rail" priority="19" numLanes="1" speed="27.78" allow="rail_urban" oneway="1"/>
    <type id="railway.preserved" priority="16" numLanes="1" speed="27.78" allow="rail" oneway="1"/>
    <type id="railway.rail" priority="20" numLanes="1" speed="44.44" allow="rail" oneway="1"/>
    <type id="railway.subway" priority="18" numLanes="1" speed="27.78" allow="rail_urban" oneway="1"/>
    <type id="railway.tram" priority="17" numLanes="1" speed="13.89" allow="tram" oneway="1"/>

    <edge id=":11568414506_0" function="internal">
        <lane id=":11568414506_0_0" index="0" allow="pedestrian delivery bicycle" speed="3.65" length="4.67" shape="574.91,432.45 574.20,431.19 574.20,430.30 574.92,429.76 576.35,429.59"/>
    </edge>
    <edge id=":11568414507_0" function="internal">
        <lane id=":11568414507_0_0" index="0" disallow="tram rail_urban rail rail_electric rail_fast ship" speed="13.89" length="9.26" shape="582.97,429.27 579.30,437.69"/>
        <lane id=":11568414507_0_1" index="1" disallow="tram rail_urban rail rail_electric rail_fast ship" speed="13.89" length="9.26" shape="580.07,427.93 576.34,436.49"/>
    </edge>
    <edge id=":11568414507_2" function="internal">
        <lane id=":11568414507_2_0" index="0" allow="pedestrian delivery bicycle" speed="5.90" length="7.41" shape="580.07,427.93 578.75,430.38 577.49,431.97 576.27,432.68 575.09,432.54"/>
    </edge>
    <edge id=":11568414507_3" function="internal">
        <lane id=":11568414507_3_0" index="0" allow="pedestrian delivery bicycle" speed="6.10" length="7.32" shape="576.53,429.68 577.32,430.51 577.55,431.92 577.23,433.91 576.34,436.49"/>
    </edge>
    <edge id=":11568414507_4" function="internal">
        <lane id=":11568414507_4_0" index="0" allow="pedestrian delivery bicycle" speed="3.65" length="4.67" shape="576.53,429.68 577.24,430.93 577.24,431.83 576.52,432.36 575.09,432.54"/>
    </edge>
    <edge id=":11568414517_0" function="internal">
        <lane id=":11568414517_0_0" index="0" allow="pedestrian delivery bicycle" speed="5.56" length="0.30" shape="626.13,294.33 626.04,294.62"/>
    </edge>
    <edge id=":11568414517_1" function="internal">
        <lane id=":11568414517_1_0" index="0" allow="pedestrian delivery bicycle" speed="5.56" length="0.30" shape="622.99,293.67 623.07,293.39"/>
    </edge>
    <edge id=":11568414518_0" function="internal">
        <lane id=":11568414518_0_0" index="0" allow="pedestrian delivery bicycle" speed="5.11" length="5.08" shape="630.67,290.00 629.33,289.82 628.23,290.13 627.38,290.93 626.78,292.21"/>
    </edge>
    <edge id=":11568414518_1" function="internal">
        <lane id=":11568414518_1_0" index="0" disallow="tram rail_urban rail rail_electric rail_fast ship" speed="11.11" length="9.40" shape="630.67,290.00 621.64,287.41"/>
        <lane id=":11568414518_1_1" index="1" disallow="tram rail_urban rail rail_electric rail_fast ship" speed="11.11" length="9.40" shape="631.56,286.92 622.51,284.34"/>
    </edge>
    <edge id=":11568414518_3" function="internal">
        <lane id=":11568414518_3_0" index="0" disallow="tram rail_urban rail rail_electric rail_fast ship" speed="11.11" length="9.41" shape="624.27,278.18 633.32,280.77"/>
        <lane id=":11568414518_3_1" index="1" disallow="tram rail_urban rail rail_electric rail_fast ship" speed="11.11" length="9.41" shape="623.39,281.26 632.44,283.85"/>
    </edge>
    <edge id=":11568414518_5" function="internal">
        <lane id=":11568414518_5_0" index="0" allow="pedestrian delivery bicycle" speed="7.62" length="2.88" shape="623.39,281.26 625.94,282.61"/>
    </edge>
    <edge id=":11568414518_9" function="internal">
        <lane id=":11568414518_9_0" index="0" allow="pedestrian delivery bicycle" speed="7.62" length="10.10" shape="625.94,282.61 627.35,284.89 627.63,288.09 626.78,292.21"/>
    </edge>
    <edge id=":11568414518_6" function="internal">
        <lane id=":11568414518_6_0" index="0" allow="pedestrian delivery bicycle" speed="5.02" length="5.02" shape="623.73,291.27 623.94,289.91 623.66,288.81 622.90,287.98 621.64,287.41"/>
    </edge>
    <edge id=":11568414518_7" function="internal">
        <lane id=":11568414518_7_0" index="0" allow="pedestrian delivery bicycle" speed="7.69" length="12.83" shape="623.73,291.27 625.32,287.39 627.31,284.86 629.68,283.68 632.44,283.85"/>
    </edge>
    <edge id=":11568414518_8" function="internal">
        <lane id=":11568414518_8_0" index="0" allow="pedestrian delivery bicycle" speed="3.65" length="4.67" shape="623.73,291.27 624.84,290.36 625.73,290.21 626.37,290.83 626.78,292.21"/>
    </edge>
    <edge id=":11568414519_0" function="internal">
        <lane id=":11568414519_0_0" index="0" allow="pedestrian delivery bicycle" speed="3.65" length="4.67" shape="617.44,322.39 616.32,323.30 615.44,323.45 614.79,322.83 614.38,321.45"/>
    </edge>
    <edge id=":12067461_0" function="internal">
        <lane id=":12067461_0_0" index="0" disallow="tram rail_urban rail rail_electric rail_fast ship" speed="11.11" length="0.10" shape="221.15,172.90 221.15,172.90"/>
        <lane id=":12067461_0_1" index="1" disallow="tram rail_urban rail rail_electric rail_fast ship" speed="11.11" length="0.10" shape="222.03,169.82 222.03,169.82"/>
    </edge>
    <edge id=":12067461_2" function="internal">
        <lane id=":12067461_2_0" index="0" disallow="tram rail_urban rail rail_electric rail_fast ship" speed="11.11" length="0.10" shape="223.79,163.67 223.79,163.67"/>
        <lane id=":12067461_2_1" index="1" disallow="tram rail_urban rail rail_electric rail_fast ship" speed="11.11" length="0.10" shape="222.91,166.74 222.91,166.74"/>
    </edge>
    <edge id=":12079315978_0" function="internal">
        <lane id=":12079315978_0_0" index="0" allow="pedestrian delivery bicycle" speed="5.06" length="5.02" shape="761.45,449.14 760.09,448.95 759.00,449.24 758.16,450.01 757.59,451.27"/>
    </edge>
    <edge id=":12079315978_1" function="internal">
        <lane id=":12079315978_1_0" index="0" disallow="tram rail_urban rail rail_electric rail_fast ship" speed="8.33" length="9.40" shape="761.45,449.14 752.42,446.51"/>
    </edge>
    <edge id=":12079315978_2" function="internal">
        <lane id=":12079315978_2_0" index="0" disallow="tram rail_urban rail rail_electric rail_fast ship" speed="8.33" length="9.40" shape="753.31,443.44 762.34,446.07"/>
    </edge>
    <edge id=":12079315978_3" function="internal">
        <lane id=":12079315978_3_0" index="0" allow="pedestrian delivery bicycle" speed="6.86" length="3.27" shape="753.31,443.44 755.86,444.59 756.18,444.94"/>
    </edge>
    <edge id=":12079315978_7" function="internal">
        <lane id=":12079315978_7_0" index="0" allow="pedestrian delivery bicycle" speed="6.86" length="6.91" shape="756.18,444.94 757.42,446.28 758.00,448.51 757.59,451.27"/>
    </edge>
    <edge id=":12079315978_4" function="internal">
        <lane id=":12079315978_4_0" index="0" allow="pedestrian delivery bicycle" speed="5.04" length="5.00" shape="754.52,450.36 754.72,449.00 754.44,447.91 753.67,447.08 752.42,446.51"/>
    </edge>
    <edge id=":12079315978_5" function="internal">
        <lane id=":12079315978_5_0" index="0" allow="pedestrian delivery bicycle" speed="6.87" length="10.16" shape="754.52,450.36 755.68,447.83 757.37,446.26 759.59,445.68 762.34,446.07"/>
    </edge>
    <edge id=":12079315978_6" function="internal">
        <lane id=":12079315978_6_0" index="0" allow="pedestrian delivery bicycle" speed="3.65" length="4.67" shape="754.52,450.36 755.63,449.44 756.51,449.28 757.16,449.89 757.59,451.27"/>
    </edge>
    <edge id=":12079315979_0" function="internal">
        <lane id=":12079315979_0_0" index="0" allow="pedestrian delivery bicycle" speed="3.65" length="4.67" shape="755.98,456.73 754.87,457.66 753.99,457.81 753.33,457.20 752.91,455.83"/>
    </edge>
    <edge id=":12120822487_0" function="internal">
        <lane id=":12120822487_0_0" index="0" allow="pedestrian delivery bicycle" speed="3.65" length="4.67" shape="576.48,335.80 575.58,334.68 575.44,333.79 576.06,333.15 577.45,332.75"/>
    </edge>
    <edge id=":12120822488_0" function="internal">
        <lane id=":12120822488_0_0" index="0" allow="pedestrian delivery bicycle" speed="5.56" length="0.29" shape="610.23,346.46 609.96,346.38"/>
    </edge>
    <edge id=":12120822488_1" function="internal">
        <lane id=":12120822488_1_0" index="0" allow="pedestrian delivery bicycle" speed="5.56" length="0.31" shape="610.92,343.33 611.21,343.42"/>
    </edge>
    <edge id=":12132415028_0" function="internal">
        <lane id=":12132415028_0_0" index="0" allow="pedestrian delivery bicycle" speed="5.56" length="0.10" shape="692.78,378.63 692.78,378.63"/>
    </edge>
    <edge id=":12132415028_1" function="internal">
        <lane id=":12132415028_1_0" index="0" allow="pedestrian delivery bicycle" speed="5.56" length="0.10" shape="693.97,375.67 693.97,375.66"/>
    </edge>
    <edge id=":12143087014_0" function="internal">
        <lane id=":12143087014_0_0" index="0" allow="pedestrian delivery bicycle" speed="5.56" length="3.97" shape="702.51,382.54 698.83,381.06"/>
    </edge>
    <edge id=":12143087014_1" function="internal">
        <lane id=":12143087014_1_0" index="0" allow="pedestrian delivery bicycle" speed="3.65" length="1.44" shape="702.51,382.54 701.69,381.35"/>
    </edge>
    <edge id=":12143087014_4" function="internal">
        <lane id=":12143087014_4_0" index="0" allow="pedestrian delivery bicycle" speed="3.65" length="3.23" shape="701.69,381.35 701.62,380.46 702.29,379.87 703.70,379.57"/>
    </edge>
    <edge id=":12143087014_2" function="internal">
        <lane id=":12143087014_2_0" index="0" allow="pedestrian delivery bicycle" speed="5.56" length="3.97" shape="700.02,378.09 703.70,379.57"/>
    </edge>
    <edge id=":12143087014_3" function="internal">
        <lane id=":12143087014_3_0" index="0" allow="pedestrian delivery bicycle" speed="3.65" length="1.44" shape="700.02,378.09 700.83,379.28"/>
    </edge>
    <edge id=":12143087014_5" function="internal">
        <lane id=":12143087014_5_0" index="0" allow="pedestrian delivery bicycle" speed="3.65" length="3.23" shape="700.83,379.28 700.91,380.17 700.24,380.77 698.83,381.06"/>
    </edge>
    <edge id=":1377334723_0" function="internal">
        <lane id=":1377334723_0_0" index="0" disallow="tram rail_urban rail rail_electric rail_fast ship" speed="5.66" length="7.33" shape="798.74,167.88 799.59,165.48 799.72,163.64 799.13,162.34 797.82,161.59"/>
        <lane id=":1377334723_0_1" index="1" disallow="tram rail_urban rail rail_electric rail_fast ship" speed="6.63" length="10.47" shape="798.74,167.88 800.15,164.19 800.61,161.40 800.13,159.50 798.70,158.51"/>
    </edge>
    <edge id=":1377334723_2" function="internal">
        <lane id=":1377334723_2_0" index="0" disallow="tram rail_urban rail rail_electric rail_fast ship" speed="16.67" length="14.45" shape="798.74,167.88 804.76,154.73"/>
        <lane id=":1377334723_2_1" index="1" disallow="tram rail_urban rail rail_electric rail_fast ship" speed="16.67" length="14.45" shape="801.65,169.20 807.67,156.07"/>
    </edge>
    <edge id=":1411126030_0" function="internal">
        <lane id=":1411126030_0_0" index="0" allow="pedestrian delivery bicycle" speed="5.00" length="5.05" shape="796.87,283.28 795.55,282.84 794.43,282.93 793.49,283.56 792.73,284.73"/>
    </edge>
    <edge id=":1411126030_1" function="internal">
        <lane id=":1411126030_1_0" index="0" allow="pedestrian delivery bicycle" speed="3.65" length="4.67" shape="796.87,283.28 796.16,282.03 796.16,281.13 796.88,280.60 798.31,280.42"/>
    </edge>
    <edge id=":1411126030_2" function="internal">
        <lane id=":1411126030_2_0" index="0" disallow="tram rail_urban rail rail_electric rail_fast ship" speed="16.67" length="9.35" shape="796.55,276.17 792.73,284.73"/>
        <lane id=":1411126030_2_1" index="1" disallow="tram rail_urban rail rail_electric rail_fast ship" speed="16.67" length="9.35" shape="793.62,274.89 789.82,283.40"/>
    </edge>
    <edge id=":1411126112_0" function="internal">
        <lane id=":1411126112_0_0" index="0" disallow="tram rail_urban rail rail_electric rail_fast ship" speed="13.89" length="9.24" shape="857.85,302.25 854.50,310.78"/>
        <lane id=":1411126112_0_1" index="1" disallow="tram rail_urban rail rail_electric rail_fast ship" speed="13.89" length="9.24" shape="854.90,301.01 851.50,309.69"/>
    </edge>
    <edge id=":1411126112_2" function="internal">
        <lane id=":1411126112_2_0" index="0" allow="pedestrian delivery bicycle" speed="6.07" length="7.78" shape="854.90,301.01 853.65,303.48 852.34,305.06 850.98,305.77 849.57,305.59"/>
    </edge>
    <edge id=":1411126112_3" function="internal">
        <lane id=":1411126112_3_0" index="0" allow="pedestrian delivery bicycle" speed="6.20" length="7.74" shape="850.83,302.65 851.92,303.54 852.39,305.01 852.25,307.06 851.50,309.69"/>
    </edge>
    <edge id=":1411126112_4" function="internal">
        <lane id=":1411126112_4_0" index="0" allow="pedestrian delivery bicycle" speed="3.65" length="4.67" shape="850.83,302.65 851.62,303.86 851.67,304.75 850.98,305.33 849.57,305.59"/>
    </edge>
    <edge id=":1497962778_0" function="internal">
        <lane id=":1497962778_0_0" index="0" disallow="tram rail_urban rail rail_electric rail_fast ship" speed="7.05" length="9.72" shape="731.78,440.51 729.03,440.06 726.75,440.45 724.95,441.67 723.63,443.73"/>
    </edge>
    <edge id=":1497962778_1" function="internal">
        <lane id=":1497962778_1_0" index="0" disallow="tram rail_urban rail rail_electric rail_fast ship" speed="3.65" length="4.67" shape="731.78,440.51 730.86,439.41 730.69,438.53 731.30,437.87 732.68,437.44"/>
    </edge>
    <edge id=":1497962778_2" function="internal">
        <lane id=":1497962778_2_0" index="0" disallow="tram rail_urban rail rail_electric rail_fast ship" speed="6.24" length="9.05" shape="729.42,430.48 728.75,432.92 729.07,434.89 730.38,436.40 732.68,437.44"/>
    </edge>
    <edge id=":1497962778_3" function="internal">
        <lane id=":1497962778_3_0" index="0" disallow="tram rail_urban rail rail_electric rail_fast ship" speed="16.67" length="14.47" shape="729.42,430.48 723.63,443.73"/>
        <lane id=":1497962778_3_1" index="1" disallow="tram rail_urban rail rail_electric rail_fast ship" speed="16.67" length="14.47" shape="726.49,429.20 720.70,442.46"/>
        <lane id=":1497962778_3_2" index="2" disallow="tram rail_urban rail rail_electric rail_fast ship" speed="16.67" length="14.47" shape="723.56,427.91 717.76,441.18"/>
    </edge>
    <edge id=":24078839_0" function="internal">
        <lane id=":24078839_0_0" index="0" disallow="pedestrian tram rail_urban rail rail_electric rail_fast ship" speed="11.11" length="15.28" shape="742.73,322.25 728.13,317.87"/>
        <lane id=":24078839_0_1" index="1" disallow="pedestrian tram rail_urban rail rail_electric rail_fast ship" speed="11.11" length="15.28" shape="743.67,319.19 729.01,314.79"/>
    </edge>
    <edge id=":24078839_2" function="internal">
        <lane id=":24078839_2_0" index="0" disallow="pedestrian tram rail_urban rail rail_electric rail_fast ship" speed="3.65" length="1.44" shape="743.67,319.19 742.76,318.07"/>
    </edge>
    <edge id=":24078839_10" function="internal">
        <lane id=":24078839_10_0" index="0" disallow="pedestrian tram rail_urban rail rail_electric rail_fast ship" speed="3.65" length="3.23" shape="742.76,318.07 742.62,317.19 743.23,316.54 744.62,316.13"/>
    </edge>
    <edge id=":24078839_3" function="internal">
        <lane id=":24078839_3_0" index="0" disallow="tram rail_urban rail rail_electric rail_fast ship" speed="6.48" length="8.18" shape="730.77,308.64 732.29,308.66 733.73,307.83 735.08,306.14 736.35,303.61"/>
    </edge>
    <edge id=":24078839_4" function="internal">
        <lane id=":24078839_4_0" index="0" disallow="pedestrian tram rail_urban rail rail_electric rail_fast ship" speed="11.11" length="15.41" shape="730.77,308.64 745.56,313.07"/>
        <lane id=":24078839_4_1" index="1" disallow="pedestrian tram rail_urban rail rail_electric rail_fast ship" speed="11.11" length="15.41" shape="729.89,311.72 744.62,316.13"/>
    </edge>
    <edge id=":24078839_6" function="internal">
        <lane id=":24078839_6_0" index="0" disallow="tram rail_urban rail rail_electric rail_fast ship" speed="3.65" length="1.44" shape="729.89,311.72 730.82,312.81"/>
    </edge>
    <edge id=":24078839_11" function="internal">
        <lane id=":24078839_11_0" index="0" disallow="tram rail_urban rail rail_electric rail_fast ship" speed="3.65" length="3.23" shape="730.82,312.81 730.99,313.69 730.38,314.35 729.01,314.79"/>
    </edge>
    <edge id=":24078839_7" function="internal">
        <lane id=":24078839_7_0" index="0" disallow="tram rail_urban rail rail_electric rail_fast ship" speed="5.85" length="7.61" shape="729.72,324.29 730.41,321.88 730.38,320.00 729.62,318.67 728.13,317.87"/>
    </edge>
    <edge id=":24078839_8" function="internal">
        <lane id=":24078839_8_0" index="0" disallow="tram rail_urban rail rail_electric rail_fast ship" speed="16.67" length="21.66" shape="729.72,324.29 739.31,304.83"/>
        <lane id=":24078839_8_1" index="1" disallow="tram rail_urban rail rail_electric rail_fast ship" speed="16.67" length="21.66" shape="732.70,325.46 742.26,306.06"/>
    </edge>
    <edge id=":24078977_0" function="internal">
        <lane id=":24078977_0_0" index="0" disallow="tram rail_urban rail rail_electric rail_fast ship" speed="16.67" length="0.29" shape="730.92,427.08 730.81,427.31"/>
        <lane id=":24078977_0_1" index="1" disallow="tram rail_urban rail rail_electric rail_fast ship" speed="16.67" length="0.29" shape="728.00,425.75 727.88,426.02"/>
        <lane id=":24078977_0_2" index="2" disallow="tram rail_urban rail rail_electric rail_fast ship" speed="16.67" length="0.29" shape="725.09,424.43 724.95,424.74"/>
    </edge>
    <edge id=":24079220_0" function="internal">
        <lane id=":24079220_0_0" index="0" disallow="tram rail_urban rail rail_electric rail_fast ship" speed="11.11" length="9.58" shape="651.19,295.87 641.98,293.24"/>
        <lane id=":24079220_0_1" index="1" disallow="tram rail_urban rail rail_electric rail_fast ship" speed="11.11" length="9.58" shape="652.07,292.79 642.86,290.16"/>
    </edge>
    <edge id=":24079220_2" function="internal">
        <lane id=":24079220_2_0" index="0" disallow="tram rail_urban rail rail_electric rail_fast ship" speed="8.69" length="3.70" shape="652.07,292.79 648.78,291.11"/>
    </edge>
    <edge id=":24079220_3" function="internal">
        <lane id=":24079220_3_0" index="0" disallow="tram rail_urban rail rail_electric rail_fast ship" speed="3.65" length="1.44" shape="652.07,292.79 651.14,291.69"/>
    </edge>
    <edge id=":24079220_11" function="internal">
        <lane id=":24079220_11_0" index="0" disallow="tram rail_urban rail rail_electric rail_fast ship" speed="8.69" length="13.15" shape="648.78,291.11 648.59,291.02 646.56,288.10 646.00,284.03 646.89,278.83"/>
    </edge>
    <edge id=":24079220_12" function="internal">
        <lane id=":24079220_12_0" index="0" disallow="tram rail_urban rail rail_electric rail_fast ship" speed="3.65" length="3.23" shape="651.14,291.69 650.97,290.81 651.58,290.16 652.95,289.72"/>
    </edge>
    <edge id=":24079220_4" function="internal">
        <lane id=":24079220_4_0" index="0" disallow="tram rail_urban rail rail_electric rail_fast ship" speed="6.52" length="9.05" shape="649.97,279.69 649.64,282.15 650.18,284.13 651.57,285.63 653.83,286.64"/>
    </edge>
    <edge id=":24079220_5" function="internal">
        <lane id=":24079220_5_0" index="0" disallow="tram rail_urban rail rail_electric rail_fast ship" speed="7.83" length="13.58" shape="649.97,279.69 648.31,284.68 646.57,288.09 644.75,289.92 642.86,290.16"/>
    </edge>
    <edge id=":24079220_6" function="internal">
        <lane id=":24079220_6_0" index="0" disallow="tram rail_urban rail rail_electric rail_fast ship" speed="3.65" length="4.67" shape="649.97,279.69 648.88,280.63 648.00,280.80 647.34,280.20 646.89,278.83"/>
    </edge>
    <edge id=":24079220_7" function="internal">
        <lane id=":24079220_7_0" index="0" disallow="tram rail_urban rail rail_electric rail_fast ship" speed="5.36" length="5.80" shape="644.61,284.01 645.34,283.45 646.01,281.88 646.56,280.08 646.89,278.83"/>
    </edge>
    <edge id=":24079220_8" function="internal">
        <lane id=":24079220_8_0" index="0" disallow="tram rail_urban rail rail_electric rail_fast ship" speed="11.11" length="9.58" shape="644.61,284.01 653.83,286.64"/>
        <lane id=":24079220_8_1" index="1" disallow="tram rail_urban rail rail_electric rail_fast ship" speed="11.11" length="9.58" shape="643.74,287.08 652.95,289.72"/>
    </edge>
    <edge id=":24079220_10" function="internal">
        <lane id=":24079220_10_0" index="0" disallow="tram rail_urban rail rail_electric rail_fast ship" speed="3.65" length="1.44" shape="643.74,287.08 644.67,288.18"/>
    </edge>
    <edge id=":24079220_13" function="internal">
        <lane id=":24079220_13_0" index="0" disallow="tram rail_urban rail rail_electric rail_fast ship" speed="3.65" length="3.23" shape="644.67,288.18 644.84,289.06 644.23,289.72 642.86,290.16"/>
    </edge>
    <edge id=":24081705_0" function="internal">
        <lane id=":24081705_0_0" index="0" disallow="tram rail_urban rail rail_electric rail_fast ship" speed="13.89" length="9.43" shape="598.51,395.88 594.49,404.38"/>
        <lane id=":24081705_0_1" index="1" disallow="tram rail_urban rail rail_electric rail_fast ship" speed="13.89" length="9.43" shape="595.63,394.48 591.58,403.03"/>
    </edge>
    <edge id=":24081705_2" function="internal">
        <lane id=":24081705_2_0" index="0" disallow="tram rail_urban rail rail_electric rail_fast ship" speed="6.62" length="8.08" shape="595.63,394.48 594.26,396.82 592.83,398.36 591.32,399.11 589.74,399.06"/>
    </edge>
    <edge id=":24081705_3" function="internal">
        <lane id=":24081705_3_0" index="0" disallow="tram rail_urban rail rail_electric rail_fast ship" speed="5.93" length="8.24" shape="590.60,395.97 592.07,396.81 592.73,398.26 592.57,400.34 591.58,403.03"/>
    </edge>
    <edge id=":24081705_4" function="internal">
        <lane id=":24081705_4_0" index="0" disallow="tram rail_urban rail rail_electric rail_fast ship" speed="3.65" length="4.67" shape="590.60,395.97 591.54,397.07 591.71,397.94 591.11,398.61 589.74,399.06"/>
    </edge>
    <edge id=":243458617_0" function="internal">
        <lane id=":243458617_0_0" index="0" disallow="tram rail_urban rail rail_electric rail_fast ship" speed="11.11" length="14.42" shape="846.12,352.54 832.26,348.57"/>
        <lane id=":243458617_0_1" index="1" disallow="tram rail_urban rail rail_electric rail_fast ship" speed="11.11" length="14.42" shape="847.00,349.46 833.15,345.49"/>
    </edge>
    <edge id=":243458617_2" function="internal">
        <lane id=":243458617_2_0" index="0" disallow="tram rail_urban rail rail_electric rail_fast ship" speed="3.65" length="1.44" shape="847.00,349.46 846.07,348.36"/>
    </edge>
    <edge id=":243458617_8" function="internal">
        <lane id=":243458617_8_0" index="0" disallow="tram rail_urban rail rail_electric rail_fast ship" speed="3.65" length="3.23" shape="846.07,348.36 845.91,347.48 846.51,346.83 847.88,346.39"/>
    </edge>
    <edge id=":243458617_3" function="internal">
        <lane id=":243458617_3_0" index="0" disallow="tram rail_urban rail rail_electric rail_fast ship" speed="6.36" length="9.04" shape="845.22,336.36 844.71,338.81 845.13,340.79 846.48,342.29 848.77,343.31"/>
    </edge>
    <edge id=":243458617_4" function="internal">
        <lane id=":243458617_4_0" index="0" disallow="tram rail_urban rail rail_electric rail_fast ship" speed="8.36" length="14.75" shape="842.21,335.27 840.07,340.27 837.84,343.63 835.53,345.37 833.15,345.49"/>
    </edge>
    <edge id=":243458617_5" function="internal">
        <lane id=":243458617_5_0" index="0" disallow="tram rail_urban rail rail_electric rail_fast ship" speed="11.11" length="14.42" shape="834.91,339.34 848.77,343.31"/>
        <lane id=":243458617_5_1" index="1" disallow="tram rail_urban rail rail_electric rail_fast ship" speed="11.11" length="14.42" shape="834.03,342.42 847.88,346.39"/>
    </edge>
    <edge id=":243458617_7" function="internal">
        <lane id=":243458617_7_0" index="0" disallow="tram rail_urban rail rail_electric rail_fast ship" speed="3.65" length="1.44" shape="834.03,342.42 834.96,343.51"/>
    </edge>
    <edge id=":243458617_9" function="internal">
        <lane id=":243458617_9_0" index="0" disallow="tram rail_urban rail rail_electric rail_fast ship" speed="3.65" length="3.23" shape="834.96,343.51 835.12,344.39 834.52,345.05 833.15,345.49"/>
    </edge>
    <edge id=":315787991_0" function="internal">
        <lane id=":315787991_0_0" index="0" allow="delivery bicycle" speed="5.84" length="6.49" shape="761.11,327.93 759.14,327.53 757.56,327.68 756.34,328.37 755.50,329.61"/>
    </edge>
    <edge id=":315787991_1" function="internal">