
<additional>
    <tlLogic id="center" type="static" programID="fixed_prog" offset="0">
        <phase duration="30" state="GGGGggrrrrrrGGGGggrrrrrr"/>
        <phase duration="5"  state="yyyyyyrrrrrryyyyyyrrrrrr"/>
        <phase duration="30" state="rrrrrrGGGGggrrrrrrGGGGgg"/>
        <phase duration="5"  state="rrrrrryyyyyyrrrrrryyyyyy"/>
    </tlLogic>
</additional>
