
<nodes>
    <node id="center" type="traffic_light" x="0" y="0" />
    <node id="N" x="0" y="500" />
    <node id="S" x="0" y="-500" />
    <node id="E" x="500" y="0" />
    <node id="W" x="-500" y="0" />
</nodes>
